*SPEF "ieee 1481-1999"
*DESIGN "counter_board"
*DATE "18:43:43 Wednesday December 11, 2024"
*VENDOR "The OpenROAD Project"
*PROGRAM "OpenROAD"
*VERSION "v2.0-17595-gdb3156281"
*DESIGN_FLOW "NAME_SCOPE LOCAL" "PIN_CAP NONE"
*DIVIDER /
*DELIMITER :
*BUS_DELIMITER []
*T_UNIT 1 NS
*C_UNIT 1 PF
*R_UNIT 1 OHM
*L_UNIT 1 HENRY

*NAME_MAP
*1 _00_
*2 _01_
*3 _02_
*4 _03_
*5 _04_
*6 _05_
*7 _06_
*8 _07_
*9 _08_
*10 _09_
*11 _10_
*12 _11_
*13 _12_
*14 _13_
*15 _14_
*16 _15_
*17 _16_
*18 _17_
*19 clknet_0_clock_i
*20 clock_i
*21 net3
*22 net4
*23 net5
*24 net6
*25 enable_i
*26 reset_n_i
*27 net1
*30 net2
*31 counter_value_o[0]
*32 counter_value_o[1]
*33 counter_value_o[2]
*34 counter_value_o[3]
*35 net7
*36 net8
*37 net9
*38 net10
*39 clknet_1_0__leaf_clock_i
*40 clknet_1_1__leaf_clock_i
*41 net11
*42 net12
*43 net13
*44 net14
*45 net15
*46 net16
*47 net17
*48 net18
*49 net19
*50 net20
*51 net21
*52 net22
*53 net23
*54 net24
*55 net25
*56 net26
*57 _19_
*58 _20_
*59 _21_
*60 _22_
*61 _23_
*62 _24_
*63 _25_
*64 _26_
*65 _27_
*66 _28_
*67 _29_
*68 _30_
*69 _31_
*70 _32_
*71 _33_
*72 _34_
*73 _35_
*74 clkbuf_0_clock_i
*75 counter_0\.n20_q\[0\]\$_DFFE_PN0P_
*76 counter_0\.n20_q\[1\]\$_DFFE_PN0P_
*77 counter_0\.n20_q\[2\]\$_DFFE_PN0P_
*78 counter_0\.n20_q\[3\]\$_DFFE_PN0P_
*79 hold1
*80 PHY_EDGE_ROW_0_Right_0
*81 PHY_EDGE_ROW_1_Right_1
*82 PHY_EDGE_ROW_2_Right_2
*83 PHY_EDGE_ROW_3_Right_3
*84 PHY_EDGE_ROW_4_Right_4
*85 PHY_EDGE_ROW_5_Right_5
*86 PHY_EDGE_ROW_6_Right_6
*87 PHY_EDGE_ROW_7_Right_7
*88 PHY_EDGE_ROW_8_Right_8
*89 PHY_EDGE_ROW_9_Right_9
*90 PHY_EDGE_ROW_10_Right_10
*91 PHY_EDGE_ROW_11_Right_11
*92 PHY_EDGE_ROW_12_Right_12
*93 PHY_EDGE_ROW_13_Right_13
*94 PHY_EDGE_ROW_14_Right_14
*95 PHY_EDGE_ROW_15_Right_15
*96 PHY_EDGE_ROW_16_Right_16
*97 PHY_EDGE_ROW_17_Right_17
*98 PHY_EDGE_ROW_18_Right_18
*99 PHY_EDGE_ROW_19_Right_19
*100 PHY_EDGE_ROW_20_Right_20
*101 PHY_EDGE_ROW_21_Right_21
*102 PHY_EDGE_ROW_22_Right_22
*103 PHY_EDGE_ROW_23_Right_23
*104 PHY_EDGE_ROW_24_Right_24
*105 PHY_EDGE_ROW_25_Right_25
*106 PHY_EDGE_ROW_26_Right_26
*107 PHY_EDGE_ROW_27_Right_27
*108 PHY_EDGE_ROW_28_Right_28
*109 PHY_EDGE_ROW_0_Left_29
*110 PHY_EDGE_ROW_1_Left_30
*111 PHY_EDGE_ROW_2_Left_31
*112 PHY_EDGE_ROW_3_Left_32
*113 PHY_EDGE_ROW_4_Left_33
*114 PHY_EDGE_ROW_5_Left_34
*115 PHY_EDGE_ROW_6_Left_35
*116 PHY_EDGE_ROW_7_Left_36
*117 PHY_EDGE_ROW_8_Left_37
*118 PHY_EDGE_ROW_9_Left_38
*119 PHY_EDGE_ROW_10_Left_39
*120 PHY_EDGE_ROW_11_Left_40
*121 PHY_EDGE_ROW_12_Left_41
*122 PHY_EDGE_ROW_13_Left_42
*123 PHY_EDGE_ROW_14_Left_43
*124 PHY_EDGE_ROW_15_Left_44
*125 PHY_EDGE_ROW_16_Left_45
*126 PHY_EDGE_ROW_17_Left_46
*127 PHY_EDGE_ROW_18_Left_47
*128 PHY_EDGE_ROW_19_Left_48
*129 PHY_EDGE_ROW_20_Left_49
*130 PHY_EDGE_ROW_21_Left_50
*131 PHY_EDGE_ROW_22_Left_51
*132 PHY_EDGE_ROW_23_Left_52
*133 PHY_EDGE_ROW_24_Left_53
*134 PHY_EDGE_ROW_25_Left_54
*135 PHY_EDGE_ROW_26_Left_55
*136 PHY_EDGE_ROW_27_Left_56
*137 PHY_EDGE_ROW_28_Left_57
*138 input1
*139 output2
*140 output3
*141 output4
*142 output5
*143 counter_0\.n20_q\[0\]\$_DFFE_PN0P__6
*144 counter_0\.n20_q\[1\]\$_DFFE_PN0P__7
*145 counter_0\.n20_q\[2\]\$_DFFE_PN0P__8
*146 counter_0\.n20_q\[3\]\$_DFFE_PN0P__9
*147 clkbuf_1_0__f_clock_i
*148 clkbuf_1_1__f_clock_i
*149 rebuffer1
*150 rebuffer2
*151 rebuffer3
*152 rebuffer4
*153 rebuffer5
*154 rebuffer6
*155 rebuffer7
*156 rebuffer8
*157 rebuffer9
*158 rebuffer10
*159 rebuffer11
*160 rebuffer12
*161 rebuffer13
*162 hold14
*163 rebuffer14
*164 rebuffer15
*165 FILLER_0_2
*166 FILLER_0_24
*167 FILLER_0_46
*168 FILLER_0_68
*169 FILLER_0_90
*170 FILLER_0_112
*171 FILLER_0_134
*172 FILLER_0_144
*173 FILLER_1_2
*174 FILLER_1_24
*175 FILLER_1_46
*176 FILLER_1_68
*177 FILLER_1_90
*178 FILLER_1_112
*179 FILLER_1_134
*180 FILLER_1_144
*181 FILLER_2_2
*182 FILLER_2_24
*183 FILLER_2_46
*184 FILLER_2_68
*185 FILLER_2_90
*186 FILLER_2_112
*187 FILLER_2_134
*188 FILLER_2_144
*189 FILLER_3_2
*190 FILLER_3_24
*191 FILLER_3_46
*192 FILLER_3_68
*193 FILLER_3_90
*194 FILLER_3_112
*195 FILLER_3_134
*196 FILLER_3_144
*197 FILLER_4_2
*198 FILLER_4_24
*199 FILLER_4_46
*200 FILLER_4_68
*201 FILLER_4_90
*202 FILLER_4_112
*203 FILLER_4_134
*204 FILLER_4_144
*205 FILLER_5_2
*206 FILLER_5_24
*207 FILLER_5_46
*208 FILLER_5_68
*209 FILLER_5_90
*210 FILLER_5_112
*211 FILLER_5_134
*212 FILLER_5_144
*213 FILLER_6_2
*214 FILLER_6_24
*215 FILLER_6_46
*216 FILLER_6_68
*217 FILLER_6_90
*218 FILLER_6_112
*219 FILLER_6_134
*220 FILLER_6_144
*221 FILLER_7_2
*222 FILLER_7_24
*223 FILLER_7_46
*224 FILLER_7_68
*225 FILLER_7_90
*226 FILLER_7_112
*227 FILLER_7_134
*228 FILLER_7_144
*229 FILLER_8_2
*230 FILLER_8_24
*231 FILLER_8_46
*232 FILLER_8_68
*233 FILLER_8_90
*234 FILLER_8_112
*235 FILLER_8_134
*236 FILLER_8_144
*237 FILLER_9_2
*238 FILLER_9_8
*239 FILLER_9_15
*240 FILLER_9_37
*241 FILLER_9_59
*242 FILLER_9_81
*243 FILLER_9_103
*244 FILLER_9_125
*245 FILLER_9_139
*246 FILLER_10_2
*247 FILLER_10_24
*248 FILLER_10_46
*249 FILLER_10_68
*250 FILLER_10_90
*251 FILLER_10_112
*252 FILLER_10_134
*253 FILLER_10_144
*254 FILLER_11_8
*255 FILLER_11_14
*256 FILLER_11_27
*257 FILLER_11_33
*258 FILLER_11_38
*259 FILLER_11_49
*260 FILLER_11_71
*261 FILLER_11_93
*262 FILLER_11_115
*263 FILLER_11_137
*264 FILLER_11_143
*265 FILLER_12_2
*266 FILLER_12_30
*267 FILLER_12_37
*268 FILLER_12_60
*269 FILLER_12_82
*270 FILLER_12_104
*271 FILLER_12_126
*272 FILLER_12_140
*273 FILLER_12_144
*274 FILLER_13_2
*275 FILLER_13_34
*276 FILLER_13_36
*277 FILLER_13_67
*278 FILLER_13_89
*279 FILLER_13_111
*280 FILLER_13_133
*281 FILLER_13_143
*282 FILLER_14_48
*283 FILLER_14_71
*284 FILLER_14_93
*285 FILLER_14_115
*286 FILLER_14_137
*287 FILLER_14_143
*288 FILLER_15_2
*289 FILLER_15_8
*290 FILLER_15_63
*291 FILLER_15_85
*292 FILLER_15_95
*293 FILLER_15_102
*294 FILLER_15_124
*295 FILLER_15_138
*296 FILLER_15_144
*297 FILLER_16_2
*298 FILLER_16_6
*299 FILLER_16_12
*300 FILLER_16_14
*301 FILLER_16_20
*302 FILLER_16_59
*303 FILLER_16_81
*304 FILLER_16_103
*305 FILLER_16_125
*306 FILLER_16_139
*307 FILLER_17_2
*308 FILLER_17_16
*309 FILLER_17_23
*310 FILLER_17_29
*311 FILLER_17_34
*312 FILLER_17_40
*313 FILLER_17_46
*314 FILLER_17_68
*315 FILLER_17_90
*316 FILLER_17_112
*317 FILLER_17_134
*318 FILLER_17_144
*319 FILLER_18_2
*320 FILLER_18_24
*321 FILLER_18_46
*322 FILLER_18_68
*323 FILLER_18_90
*324 FILLER_18_112
*325 FILLER_18_134
*326 FILLER_18_144
*327 FILLER_19_2
*328 FILLER_19_6
*329 FILLER_19_12
*330 FILLER_19_34
*331 FILLER_19_56
*332 FILLER_19_78
*333 FILLER_19_100
*334 FILLER_19_122
*335 FILLER_19_144
*336 FILLER_20_2
*337 FILLER_20_24
*338 FILLER_20_46
*339 FILLER_20_68
*340 FILLER_20_90
*341 FILLER_20_112
*342 FILLER_20_134
*343 FILLER_20_144
*344 FILLER_21_2
*345 FILLER_21_24
*346 FILLER_21_46
*347 FILLER_21_68
*348 FILLER_21_90
*349 FILLER_21_112
*350 FILLER_21_134
*351 FILLER_21_144
*352 FILLER_22_2
*353 FILLER_22_24
*354 FILLER_22_46
*355 FILLER_22_68
*356 FILLER_22_90
*357 FILLER_22_112
*358 FILLER_22_134
*359 FILLER_22_144
*360 FILLER_23_2
*361 FILLER_23_24
*362 FILLER_23_46
*363 FILLER_23_68
*364 FILLER_23_90
*365 FILLER_23_112
*366 FILLER_23_134
*367 FILLER_23_144
*368 FILLER_24_2
*369 FILLER_24_24
*370 FILLER_24_46
*371 FILLER_24_68
*372 FILLER_24_90
*373 FILLER_24_112
*374 FILLER_24_134
*375 FILLER_24_144
*376 FILLER_25_2
*377 FILLER_25_24
*378 FILLER_25_46
*379 FILLER_25_68
*380 FILLER_25_90
*381 FILLER_25_112
*382 FILLER_25_134
*383 FILLER_25_144
*384 FILLER_26_2
*385 FILLER_26_24
*386 FILLER_26_46
*387 FILLER_26_68
*388 FILLER_26_90
*389 FILLER_26_112
*390 FILLER_26_134
*391 FILLER_26_144
*392 FILLER_27_2
*393 FILLER_27_24
*394 FILLER_27_46
*395 FILLER_27_68
*396 FILLER_27_90
*397 FILLER_27_112
*398 FILLER_27_134
*399 FILLER_27_144
*400 FILLER_28_2
*401 FILLER_28_24
*402 FILLER_28_46
*403 FILLER_28_68
*404 FILLER_28_90
*405 FILLER_28_112
*406 FILLER_28_134
*407 FILLER_28_144

*PORTS
clock_i I
counter_value_o[0] O
counter_value_o[1] O
counter_value_o[2] O
counter_value_o[3] O
enable_i I
reset_n_i I

*D_NET *1 0.000464434
*CONN
*I *62:C I *D OR3x1_ASAP7_75t_R
*I *72:A1 I *D AOI21x1_ASAP7_75t_R
*I *57:A I *D INVx1_ASAP7_75t_R
*I *78:QN O *D DFFASRHQNx1_ASAP7_75t_R
*CAP
1 *62:C 1.1114e-05
2 *72:A1 0
3 *57:A 9.6085e-06
4 *78:QN 2.52155e-05
5 *1:41 2.35976e-05
6 *1:35 3.47116e-05
7 *1:33 4.68982e-05
8 *1:18 7.4798e-05
9 *1:8 4.35068e-05
10 *57:A *17:10 6.6195e-06
11 *62:C *62:A 6.92783e-06
12 *62:C *62:B 7.63254e-07
13 *62:C *68:B 5.51397e-07
14 *62:C *5:38 1.2768e-05
15 *62:C *42:8 5.85387e-06
16 *62:C *42:14 4.49125e-06
17 *62:C *45:16 8.71976e-06
18 *62:C *55:35 2.01975e-06
19 *1:8 *23:12 9.31704e-06
20 *1:8 *49:14 1.27782e-06
21 *1:18 *70:A1 1.83648e-06
22 *1:18 *3:10 1.43238e-05
23 *1:18 *8:12 5.33282e-06
24 *1:18 *10:14 1.24855e-06
25 *1:18 *24:27 9.58188e-07
26 *1:18 *30:14 9.98013e-06
27 *1:18 *30:35 1.2428e-05
28 *1:18 *51:20 1.44231e-05
29 *1:33 *66:A2 1.40419e-08
30 *1:33 *9:8 0
31 *1:33 *24:27 4.99711e-06
32 *1:33 *42:14 2.31575e-05
33 *1:33 *43:12 1.04475e-06
34 *1:41 *72:A2 0
35 *1:41 *9:8 0
36 *1:41 *30:41 5.22376e-06
37 *1:41 *45:16 3.92487e-05
38 *1:41 *55:24 9.41947e-07
39 *1:41 *55:35 5.15195e-07
*RES
1 *78:QN *1:8 45.6313 
2 *1:8 *1:18 48.9519 
3 *1:18 *57:A 39.2134 
4 *1:18 *1:33 39.9744 
5 *1:33 *1:35 17.2 
6 *1:35 *1:41 36.5991 
7 *1:41 *72:A1 17.2 
8 *1:35 *62:C 46.0281 
*END

*D_NET *2 0.000442761
*CONN
*I *62:B I *D OR3x1_ASAP7_75t_R
*I *160:A I *D BUFx2_ASAP7_75t_R
*I *58:A I *D INVx2_ASAP7_75t_R
*I *161:A I *D BUFx3_ASAP7_75t_R
*I *77:QN O *D DFFASRHQNx1_ASAP7_75t_R
*CAP
1 *62:B 1.61253e-06
2 *160:A 0
3 *58:A 3.11714e-06
4 *161:A 8.55176e-06
5 *77:QN 0
6 *2:43 3.47485e-05
7 *2:32 5.6349e-05
8 *2:17 6.64898e-05
9 *2:15 4.01596e-05
10 *2:4 8.55176e-06
11 *62:B *68:B 7.35354e-06
12 *62:B *42:8 5.85387e-06
13 *2:17 *76:SETN 1.10561e-06
14 *2:17 *24:10 8.04031e-05
15 *2:17 *27:21 1.10561e-06
16 *2:17 *27:28 2.55486e-06
17 *2:17 *45:8 2.30873e-06
18 *2:17 *49:14 1.32572e-05
19 *2:32 *157:A 9.08513e-06
20 *2:32 *49:14 3.16603e-06
21 *2:32 *55:37 6.31914e-05
22 *2:43 *62:A 2.68933e-07
23 *2:43 *42:14 4.83862e-06
24 *2:43 *55:35 0
25 *2:43 *55:37 2.7925e-05
26 *62:C *62:B 7.63254e-07
*RES
1 *77:QN *2:4 17.2 
2 *2:4 *161:A 21.4786 
3 *2:4 *2:15 17.2 
4 *2:15 *2:17 38.2953 
5 *2:17 *58:A 36.0045 
6 *2:17 *2:32 39.2695 
7 *2:32 *160:A 17.2 
8 *2:32 *2:43 41.1858 
9 *2:43 *62:B 36.5393 
*END

*D_NET *3 0.000308709
*CONN
*I *153:A I *D BUFx2_ASAP7_75t_R
*I *158:A I *D BUFx2_ASAP7_75t_R
*I *59:A I *D INVx2_ASAP7_75t_R
*I *76:QN O *D DFFASRHQNx1_ASAP7_75t_R
*CAP
1 *153:A 0
2 *158:A 3.84395e-06
3 *59:A 0
4 *76:QN 0
5 *3:36 1.55627e-05
6 *3:21 3.79523e-05
7 *3:10 2.61061e-05
8 *3:6 4.46518e-05
9 *158:A *51:22 9.31704e-06
10 *3:10 *17:10 1.30003e-05
11 *3:10 *23:16 3.02949e-06
12 *3:10 *23:20 6.00221e-05
13 *3:10 *24:10 0
14 *3:10 *24:27 5.37866e-07
15 *3:10 *30:35 0
16 *3:10 *51:20 1.24821e-05
17 *3:21 *17:10 8.49543e-06
18 *3:21 *24:27 1.07573e-06
19 *3:21 *51:20 1.13517e-05
20 *3:21 *51:22 9.75645e-06
21 *3:36 *23:12 1.15587e-05
22 *3:36 *49:14 1.15587e-05
23 *3:36 *51:22 1.40824e-05
24 *1:18 *3:10 1.43238e-05
*RES
1 *76:QN *3:6 34.4 
2 *3:6 *3:10 45.9215 
3 *3:10 *59:A 17.2 
4 *3:6 *3:21 32.1504 
5 *3:21 *158:A 19.8741 
6 *3:21 *3:36 48.5038 
7 *3:36 *153:A 17.2 
*END

*D_NET *4 0.000421009
*CONN
*I *156:A I *D BUFx2_ASAP7_75t_R
*I *164:A I *D BUFx2_ASAP7_75t_R
*I *60:A I *D INVx2_ASAP7_75t_R
*I *75:QN O *D DFFASRHQNx1_ASAP7_75t_R
*CAP
1 *156:A 0
2 *164:A 0
3 *60:A 0
4 *75:QN 4.64736e-05
5 *4:54 1.81111e-05
6 *4:41 1.81111e-05
7 *4:39 3.34989e-05
8 *4:28 5.19528e-05
9 *4:20 3.71363e-05
10 *4:12 2.97223e-05
11 *4:6 5.75135e-05
12 *4:6 *64:A2 2.92433e-05
13 *4:6 *11:24 2.88806e-06
14 *4:6 *51:16 2.05012e-06
15 *4:12 *64:A2 1.89962e-06
16 *4:12 *69:D 2.53282e-06
17 *4:12 *21:19 1.36943e-05
18 *4:12 *22:20 2.22736e-06
19 *4:20 *21:6 3.65131e-06
20 *4:20 *44:31 3.30589e-06
21 *4:20 *45:24 3.647e-06
22 *4:20 *53:6 2.12062e-05
23 *4:28 *44:25 2.67067e-06
24 *4:28 *55:8 6.72662e-07
25 *4:28 *55:16 0
26 *4:39 *11:10 3.05118e-08
27 *4:39 *21:6 5.34278e-06
28 *4:39 *47:10 9.77825e-06
29 *4:39 *56:12 0
30 *4:54 *11:10 0
31 *4:54 *47:10 2.83874e-07
32 *4:54 *56:8 2.3365e-05
*RES
1 *75:QN *4:6 38.0582 
2 *4:6 *4:12 43.4107 
3 *4:12 *4:20 44.7122 
4 *4:20 *4:28 41.2476 
5 *4:28 *60:A 17.2 
6 *4:28 *4:39 35.246 
7 *4:39 *4:41 17.2 
8 *4:41 *164:A 17.2 
9 *4:41 *4:54 46.9844 
10 *4:54 *156:A 17.2 
*END

*D_NET *5 0.000293365
*CONN
*I *62:A I *D OR3x1_ASAP7_75t_R
*I *150:A I *D BUFx3_ASAP7_75t_R
*I *149:A I *D BUFx3_ASAP7_75t_R
*I *73:CON O *D HAxp5_ASAP7_75t_R
*CAP
1 *62:A 3.1255e-06
2 *150:A 7.25536e-07
3 *149:A 5.75573e-06
4 *73:CON 5.74686e-06
5 *5:38 2.66783e-05
6 *5:21 4.79128e-05
7 *5:10 3.80729e-05
8 *5:8 1.44297e-05
9 *62:A *68:B 2.20493e-06
10 *62:A *55:35 3.92018e-06
11 *150:A *42:8 5.41446e-06
12 *5:8 *6:8 1.99018e-05
13 *5:8 *11:24 4.32502e-06
14 *5:8 *13:20 1.29755e-05
15 *5:10 *13:8 4.73194e-06
16 *5:10 *13:16 1.01637e-07
17 *5:10 *15:10 2.24484e-06
18 *5:10 *22:31 1.12901e-05
19 *5:10 *55:8 1.86493e-05
20 *5:21 *63:A 0
21 *5:21 *8:8 7.58669e-07
22 *5:21 *12:8 5.79724e-07
23 *5:21 *13:8 1.04612e-05
24 *5:21 *14:8 8.45637e-06
25 *5:21 *15:10 1.81476e-05
26 *5:21 *30:49 0
27 *5:38 *42:8 6.78917e-06
28 *62:C *62:A 6.92783e-06
29 *62:C *5:38 1.2768e-05
30 *2:43 *62:A 2.68933e-07
*RES
1 *73:CON *5:8 41.3527 
2 *5:8 *5:10 9.01066 
3 *5:10 *149:A 37.0741 
4 *5:10 *5:21 20.8371 
5 *5:21 *150:A 36.0045 
6 *5:21 *5:38 47.3208 
7 *5:38 *62:A 38.8203 
*END

*D_NET *6 0.000159913
*CONN
*I *65:B I *D NAND2x1_ASAP7_75t_R
*I *73:SN O *D HAxp5_ASAP7_75t_R
*CAP
1 *65:B 0
2 *73:SN 1.79443e-05
3 *6:14 2.01928e-05
4 *6:8 3.81372e-05
5 *6:8 *11:20 5.41446e-06
6 *6:8 *11:24 5.51397e-07
7 *6:14 *61:A 1.07377e-06
8 *6:14 *11:10 0
9 *6:14 *11:20 8.06436e-06
10 *6:14 *15:10 3.90779e-05
11 *6:14 *41:8 5.67735e-06
12 *6:14 *55:8 3.32524e-06
13 *6:14 *56:12 5.52807e-07
14 *5:8 *6:8 1.99018e-05
*RES
1 *73:SN *6:8 43.492 
2 *6:8 *6:14 37.9238 
3 *6:14 *65:B 17.2 
*END

*D_NET *7 0.000196941
*CONN
*I *75:D I *D DFFASRHQNx1_ASAP7_75t_R
*I *64:Y O *D AO21x1_ASAP7_75t_R
*CAP
1 *75:D 0
2 *64:Y 2.71612e-06
3 *7:20 9.36407e-07
4 *7:14 4.28915e-05
5 *7:10 4.46712e-05
6 *7:10 *13:20 3.90258e-06
7 *7:10 *43:12 1.70708e-06
8 *7:14 *9:12 5.20402e-05
9 *7:14 *10:14 1.30656e-05
10 *7:14 *30:35 0
11 *7:14 *32:16 3.42717e-05
12 *7:20 *39:20 7.3874e-07
*RES
1 *64:Y *7:10 36.1267 
2 *7:10 *7:14 46.2027 
3 *7:14 *7:20 35.057 
4 *7:20 *75:D 17.2 
*END

*D_NET *8 0.000264711
*CONN
*I *76:D I *D DFFASRHQNx1_ASAP7_75t_R
*I *66:Y O *D OA21x2_ASAP7_75t_R
*CAP
1 *76:D 0
2 *66:Y 8.54134e-07
3 *8:18 2.03013e-06
4 *8:12 8.40956e-05
5 *8:10 8.20655e-05
6 *8:8 8.54134e-07
7 *8:8 *30:49 1.19584e-06
8 *8:12 *30:14 9.97376e-06
9 *8:12 *30:35 3.5744e-05
10 *8:12 *45:12 5.92192e-06
11 *8:12 *55:24 3.58843e-05
12 *8:18 *32:10 0
13 *1:18 *8:12 5.33282e-06
14 *5:21 *8:8 7.58669e-07
*RES
1 *66:Y *8:8 35.4325 
2 *8:8 *8:10 17.2 
3 *8:10 *8:12 38.0931 
4 *8:12 *8:18 35.6202 
5 *8:18 *76:D 17.2 
*END

*D_NET *9 0.000387635
*CONN
*I *77:D I *D DFFASRHQNx1_ASAP7_75t_R
*I *68:Y O *D XNOR2x1_ASAP7_75t_R
*CAP
1 *77:D 0
2 *68:Y 0
3 *9:18 1.01032e-06
4 *9:12 7.18672e-05
5 *9:10 7.08568e-05
6 *9:8 3.01243e-05
7 *9:6 3.01243e-05
8 *9:8 *66:A2 5.80445e-06
9 *9:8 *72:A2 4.16649e-05
10 *9:8 *30:41 1.08553e-05
11 *9:8 *43:12 6.79692e-05
12 *9:8 *52:8 2.35211e-06
13 *9:8 *55:24 0
14 *9:8 *55:35 0
15 *9:12 *32:16 9.70856e-07
16 *9:18 *19:23 8.34553e-07
17 *9:18 *39:30 1.16088e-06
18 *1:33 *9:8 0
19 *1:41 *9:8 0
20 *7:14 *9:12 5.20402e-05
*RES
1 *68:Y *9:6 34.4 
2 *9:6 *9:8 35.0102 
3 *9:8 *9:10 17.2 
4 *9:10 *9:12 34.1972 
5 *9:12 *9:18 35.4325 
6 *9:18 *77:D 17.2 
*END

*D_NET *10 0.000333886
*CONN
*I *78:D I *D DFFASRHQNx1_ASAP7_75t_R
*I *72:Y O *D AOI21x1_ASAP7_75t_R
*CAP
1 *78:D 0
2 *72:Y 5.60823e-06
3 *10:22 8.21808e-06
4 *10:14 6.51293e-05
5 *10:12 5.69112e-05
6 *10:10 5.60823e-06
7 *10:10 *72:B 2.52755e-07
8 *10:10 *46:8 7.63254e-07
9 *10:14 *30:14 0.000164512
10 *10:14 *30:35 1.53347e-06
11 *10:14 *32:16 9.15379e-06
12 *10:22 *19:8 1.88168e-06
13 *1:18 *10:14 1.24855e-06
14 *7:14 *10:14 1.30656e-05
*RES
1 *72:Y *10:10 36.6615 
2 *10:10 *10:12 17.2 
3 *10:12 *10:14 32.8986 
4 *10:14 *10:22 37.7312 
5 *10:22 *78:D 17.2 
*END

*D_NET *11 0.000377985
*CONN
*I *67:B I *D NOR2x2_ASAP7_75t_R
*I *64:A2 I *D AO21x1_ASAP7_75t_R
*I *69:D I *D OR4x1_ASAP7_75t_R
*I *61:Y O *D INVx2_ASAP7_75t_R
*CAP
1 *67:B 0
2 *64:A2 8.48254e-06
3 *69:D 1.01317e-05
4 *61:Y 4.15277e-06
5 *11:26 1.86142e-05
6 *11:24 1.79847e-05
7 *11:20 3.41344e-05
8 *11:10 3.67263e-05
9 *11:8 2.47295e-05
10 *64:A2 *72:A2 3.22574e-06
11 *64:A2 *13:20 8.65004e-06
12 *69:D *72:A2 1.98844e-05
13 *69:D *159:A 5.62196e-06
14 *69:D *21:6 6.92634e-06
15 *69:D *21:19 1.98844e-05
16 *69:D *22:16 5.34278e-06
17 *69:D *43:12 1.12894e-06
18 *11:10 *41:8 2.83874e-07
19 *11:10 *47:10 0
20 *11:10 *56:12 1.26641e-06
21 *11:20 *67:A 1.56713e-06
22 *11:20 *55:8 8.33296e-06
23 *11:20 *56:8 3.56648e-06
24 *11:20 *56:12 1.89962e-06
25 *11:24 *13:20 4.56575e-05
26 *11:24 *22:31 3.48408e-05
27 *4:6 *64:A2 2.92433e-05
28 *4:6 *11:24 2.88806e-06
29 *4:12 *64:A2 1.89962e-06
30 *4:12 *69:D 2.53282e-06
31 *4:39 *11:10 3.05118e-08
32 *4:54 *11:10 0
33 *5:8 *11:24 4.32502e-06
34 *6:8 *11:20 5.41446e-06
35 *6:8 *11:24 5.51397e-07
36 *6:14 *11:10 0
37 *6:14 *11:20 8.06436e-06
*RES
1 *61:Y *11:8 36.0045 
2 *11:8 *11:10 15.2055 
3 *11:10 *11:20 46.9277 
4 *11:20 *11:24 35.9189 
5 *11:24 *11:26 17.2 
6 *11:26 *69:D 48.2808 
7 *11:26 *64:A2 44.6467 
8 *11:10 *67:B 34.4 
*END

*D_NET *12 0.000109805
*CONN
*I *63:A I *D AND3x1_ASAP7_75t_R
*I *62:Y O *D OR3x1_ASAP7_75t_R
*CAP
1 *63:A 1.12066e-05
2 *62:Y 4.29374e-06
3 *12:14 1.82146e-05
4 *12:8 1.13018e-05
5 *63:A *13:8 0
6 *63:A *30:49 2.61274e-05
7 *63:A *42:14 1.30409e-05
8 *63:A *45:16 1.20034e-05
9 *12:8 *42:14 2.68933e-07
10 *12:14 *68:B 1.2768e-05
11 *5:21 *63:A 0
12 *5:21 *12:8 5.79724e-07
*RES
1 *62:Y *12:8 37.2158 
2 *12:8 *12:14 38.1438 
3 *12:14 *63:A 48.4791 
*END

*D_NET *13 0.000198788
*CONN
*I *64:B I *D AO21x1_ASAP7_75t_R
*I *63:Y O *D AND3x1_ASAP7_75t_R
*CAP
1 *64:B 0
2 *63:Y 3.83199e-06
3 *13:20 2.45246e-05
4 *13:16 3.57452e-05
5 *13:8 1.50527e-05
6 *13:8 *44:31 4.57677e-07
7 *13:8 *45:16 0
8 *13:16 *22:31 3.16603e-06
9 *13:16 *44:31 1.9783e-05
10 *13:16 *55:16 9.74655e-06
11 *63:A *13:8 0
12 *64:A2 *13:20 8.65004e-06
13 *5:8 *13:20 1.29755e-05
14 *5:10 *13:8 4.73194e-06
15 *5:10 *13:16 1.01637e-07
16 *5:21 *13:8 1.04612e-05
17 *7:10 *13:20 3.90258e-06
18 *11:24 *13:20 4.56575e-05
*RES
1 *63:Y *13:8 39.3746 
2 *13:8 *13:16 42.9834 
3 *13:16 *13:20 36.9885 
4 *13:20 *64:B 17.2 
*END

*D_NET *14 5.88541e-05
*CONN
*I *66:B I *D OA21x2_ASAP7_75t_R
*I *65:Y O *D NAND2x1_ASAP7_75t_R
*CAP
1 *66:B 1.43436e-05
2 *65:Y 1.29765e-06
3 *14:8 1.56412e-05
4 *66:B *61:A 3.56177e-06
5 *66:B *30:49 6.33382e-06
6 *66:B *42:14 7.63254e-07
7 *14:8 *15:10 8.45637e-06
8 *5:21 *14:8 8.45637e-06
*RES
1 *65:Y *14:8 37.2158 
2 *14:8 *66:B 43.492 
*END

*D_NET *15 0.000196963
*CONN
*I *68:B I *D XNOR2x1_ASAP7_75t_R
*I *67:Y O *D NOR2x2_ASAP7_75t_R
*CAP
1 *68:B 2.58185e-05
2 *67:Y 0
3 *15:10 4.43766e-05
4 *15:6 1.85581e-05
5 *68:B *42:8 1.17973e-05
6 *15:10 *55:8 5.60838e-06
7 *62:A *68:B 2.20493e-06
8 *62:B *68:B 7.35354e-06
9 *62:C *68:B 5.51397e-07
10 *5:10 *15:10 2.24484e-06
11 *5:21 *15:10 1.81476e-05
12 *6:14 *15:10 3.90779e-05
13 *12:14 *68:B 1.2768e-05
14 *14:8 *15:10 8.45637e-06
*RES
1 *67:Y *15:6 34.4 
2 *15:6 *15:10 38.6003 
3 *15:10 *68:B 18.4515 
*END

*D_NET *16 9.81802e-05
*CONN
*I *72:A2 I *D AOI21x1_ASAP7_75t_R
*I *69:Y O *D OR4x1_ASAP7_75t_R
*CAP
1 *72:A2 1.03476e-05
2 *69:Y 3.64771e-06
3 *16:8 1.39953e-05
4 *72:A2 *45:16 0
5 *16:8 *53:6 5.41446e-06
6 *64:A2 *72:A2 3.22574e-06
7 *69:D *72:A2 1.98844e-05
8 *1:41 *72:A2 0
9 *9:8 *72:A2 4.16649e-05
*RES
1 *69:Y *16:8 36.0045 
2 *16:8 *72:A2 48.4791 
*END

*D_NET *17 7.035e-05
*CONN
*I *71:A I *D AND4x1_ASAP7_75t_R
*I *70:Y O *D OAI21x1_ASAP7_75t_R
*CAP
1 *71:A 3.04152e-06
2 *70:Y 1.44478e-05
3 *17:10 1.74893e-05
4 *71:A *46:8 2.12481e-06
5 *17:10 *24:8 2.11853e-06
6 *17:10 *24:27 3.01283e-06
7 *57:A *17:10 6.6195e-06
8 *3:10 *17:10 1.30003e-05
9 *3:21 *17:10 8.49543e-06
*RES
1 *70:Y *17:10 47.0411 
2 *17:10 *71:A 36.0045 
*END

*D_NET *18 1.6522e-05
*CONN
*I *72:B I *D AOI21x1_ASAP7_75t_R
*I *71:Y O *D AND4x1_ASAP7_75t_R
*CAP
1 *72:B 6.65053e-06
2 *71:Y 6.65053e-06
3 *72:B *46:8 2.96818e-06
4 *10:10 *72:B 2.52755e-07
*RES
1 *71:Y *72:B 38.6786 
*END

*D_NET *19 0.000287246
*CONN
*I *147:A I *D BUFx2_ASAP7_75t_R
*I *148:A I *D BUFx2_ASAP7_75t_R
*I *74:Y O *D BUFx2_ASAP7_75t_R
*CAP
1 *147:A 0
2 *148:A 3.64737e-06
3 *74:Y 0
4 *19:23 4.55155e-05
5 *19:21 6.24403e-05
6 *19:8 6.70251e-05
7 *19:6 6.33778e-05
8 *19:4 1.69248e-05
9 *19:8 *78:CLK 2.95032e-06
10 *19:8 *30:10 0
11 *19:8 *31:12 0
12 *19:8 *40:8 0
13 *19:8 *40:16 0
14 *19:21 *39:20 5.4358e-07
15 *19:21 *39:30 1.92038e-06
16 *19:23 *78:RESETN 0
17 *19:23 *34:12 0
18 *19:23 *39:12 0
19 *19:23 *39:20 2.01848e-05
20 *19:23 *39:30 0
21 *9:18 *19:23 8.34553e-07
22 *10:22 *19:8 1.88168e-06
*RES
1 *74:Y *19:4 17.2 
2 *19:4 *19:6 17.2 
3 *19:6 *19:8 46.7428 
4 *19:8 *148:A 36.0045 
5 *19:4 *19:21 23.0831 
6 *19:21 *19:23 35.4795 
7 *19:23 *147:A 34.4 
*END

*D_NET *20 0.000164903
*CONN
*P clock_i I
*I *74:A I *D BUFx2_ASAP7_75t_R
*CAP
1 clock_i 2.98992e-05
2 *74:A 0
3 *20:13 2.95359e-05
4 *20:9 5.9435e-05
5 *20:9 *25:9 2.28166e-05
6 *20:9 *33:10 2.32162e-05
*RES
1 clock_i *20:9 42.2004 
2 *20:9 *20:13 39.1278 
3 *20:13 *74:A 17.2 
*END

*D_NET *21 0.00021103
*CONN
*I *73:B I *D HAxp5_ASAP7_75t_R
*I *159:A I *D BUFx2_ASAP7_75t_R
*I *60:Y O *D INVx2_ASAP7_75t_R
*CAP
1 *73:B 0
2 *159:A 1.01859e-05
3 *60:Y 2.28021e-05
4 *21:19 4.85185e-06
5 *21:6 3.78398e-05
6 *159:A *22:16 1.07377e-06
7 *159:A *53:6 3.22548e-05
8 *21:6 *69:B 1.2768e-05
9 *21:6 *69:C 2.12009e-06
10 *21:6 *163:A 2.20493e-06
11 *21:6 *22:16 1.04475e-06
12 *21:6 *22:39 3.65131e-06
13 *21:6 *53:6 2.50966e-05
14 *21:19 *22:20 1.49407e-08
15 *69:D *159:A 5.62196e-06
16 *69:D *21:6 6.92634e-06
17 *69:D *21:19 1.98844e-05
18 *4:12 *21:19 1.36943e-05
19 *4:20 *21:6 3.65131e-06
20 *4:39 *21:6 5.34278e-06
*RES
1 *60:Y *21:6 39.1278 
2 *21:6 *159:A 26.8269 
3 *21:6 *21:19 41.158 
4 *21:19 *73:B 17.2 
*END

*D_NET *22 0.000328862
*CONN
*I *163:A I *D BUFx2_ASAP7_75t_R
*I *73:A I *D HAxp5_ASAP7_75t_R
*I *59:Y O *D INVx2_ASAP7_75t_R
*CAP
1 *163:A 2.20937e-06
2 *73:A 0
3 *59:Y 1.07138e-05
4 *22:39 1.45034e-05
5 *22:31 3.42342e-05
6 *22:20 4.15206e-05
7 *22:16 4.22417e-05
8 *22:8 3.3375e-05
9 *22:8 *54:20 3.63633e-05
10 *22:16 *69:C 3.68287e-06
11 *22:16 *43:12 9.94583e-06
12 *22:16 *47:24 1.12894e-06
13 *22:20 *43:12 0
14 *22:20 *44:8 4.83862e-06
15 *22:20 *44:25 2.4919e-06
16 *22:20 *45:24 1.49407e-06
17 *22:31 *44:31 5.15195e-07
18 *22:31 *45:24 8.87763e-06
19 *22:31 *55:8 3.63172e-06
20 *22:39 *44:25 0
21 *22:39 *44:31 1.22369e-05
22 *22:39 *56:12 0
23 *69:D *22:16 5.34278e-06
24 *159:A *22:16 1.07377e-06
25 *4:12 *22:20 2.22736e-06
26 *5:10 *22:31 1.12901e-05
27 *11:24 *22:31 3.48408e-05
28 *13:16 *22:31 3.16603e-06
29 *21:6 *163:A 2.20493e-06
30 *21:6 *22:16 1.04475e-06
31 *21:6 *22:39 3.65131e-06
32 *21:19 *22:20 1.49407e-08
*RES
1 *59:Y *22:8 45.6313 
2 *22:8 *22:16 48.054 
3 *22:16 *22:20 30.716 
4 *22:20 *73:A 17.2 
5 *22:20 *22:31 35.246 
6 *22:31 *22:39 42.1426 
7 *22:39 *163:A 36.0045 
*END

*D_NET *23 0.000584889
*CONN
*I *71:B I *D AND4x1_ASAP7_75t_R
*I *141:A I *D BUFx3_ASAP7_75t_R
*I *58:Y O *D INVx2_ASAP7_75t_R
*CAP
1 *71:B 2.31551e-06
2 *141:A 0
3 *58:Y 0
4 *23:28 6.57385e-06
5 *23:22 0.000138725
6 *23:20 0.000165899
7 *23:16 3.84316e-05
8 *23:12 2.56263e-05
9 *23:6 2.32582e-05
10 *71:B *46:8 6.83133e-07
11 *23:12 *24:10 2.89387e-06
12 *23:12 *46:8 1.75616e-05
13 *23:12 *49:14 2.14567e-05
14 *23:12 *50:8 2.22736e-06
15 *23:12 *51:20 5.45464e-05
16 *23:20 *51:10 7.61977e-07
17 *1:8 *23:12 9.31704e-06
18 *3:10 *23:16 3.02949e-06
19 *3:10 *23:20 6.00221e-05
20 *3:36 *23:12 1.15587e-05
*RES
1 *58:Y *23:6 34.4 
2 *23:6 *23:12 46.7927 
3 *23:12 *23:16 18.8895 
4 *23:16 *23:20 45.9215 
5 *23:20 *23:22 52.9477 
6 *23:22 *23:28 38.9053 
7 *23:28 *141:A 17.2 
8 *23:16 *71:B 35.4697 
*END

*D_NET *24 0.000371251
*CONN
*I *71:D I *D AND4x1_ASAP7_75t_R
*I *142:A I *D BUFx3_ASAP7_75t_R
*I *57:Y O *D INVx1_ASAP7_75t_R
*CAP
1 *71:D 0
2 *142:A 1.20437e-05
3 *57:Y 0
4 *24:27 1.41229e-05
5 *24:10 4.47535e-05
6 *24:8 6.30337e-05
7 *24:4 4.44468e-05
8 *142:A *77:SETN 2.25106e-05
9 *142:A *27:6 1.75355e-05
10 *142:A *34:6 1.76928e-06
11 *142:A *54:20 5.34278e-06
12 *24:10 *27:21 0
13 *24:10 *49:14 3.0392e-05
14 *24:10 *51:20 1.82277e-06
15 *24:27 *30:35 1.40171e-05
16 *24:27 *46:8 3.46317e-06
17 *1:18 *24:27 9.58188e-07
18 *1:33 *24:27 4.99711e-06
19 *2:17 *24:10 8.04031e-05
20 *3:10 *24:10 0
21 *3:10 *24:27 5.37866e-07
22 *3:21 *24:27 1.07573e-06
23 *17:10 *24:8 2.11853e-06
24 *17:10 *24:27 3.01283e-06
25 *23:12 *24:10 2.89387e-06
*RES
1 *57:Y *24:4 17.2 
2 *24:4 *24:8 28.4313 
3 *24:8 *24:10 35.4795 
4 *24:10 *142:A 48.8403 
5 *24:4 *24:27 46.733 
6 *24:27 *71:D 17.2 
*END

*D_NET *25 0.000129766
*CONN
*P enable_i I
*I *138:A I *D BUFx2_ASAP7_75t_R
*CAP
1 enable_i 2.73856e-05
2 *138:A 0
3 *25:9 2.73856e-05
4 *25:9 counter_value_o[0] 5.09455e-05
5 *25:9 *78:CLK 1.23321e-06
6 *25:9 *32:16 0
7 *20:9 *25:9 2.28166e-05
*RES
1 enable_i *25:9 39.6057 
2 *25:9 *138:A 34.4 
*END

*D_NET *26 0.000347624
*CONN
*P reset_n_i I
*I *162:A I *D BUFx2_ASAP7_75t_R
*CAP
1 reset_n_i 3.6261e-05
2 *162:A 0
3 *26:13 0.000137551
4 *26:11 0.000137551
5 *26:9 3.6261e-05
*RES
1 reset_n_i *26:9 38.1457 
2 *26:9 *26:11 17.2 
3 *26:11 *26:13 86.1068 
4 *26:13 *162:A 17.2 
*END

*D_NET *27 0.000231205
*CONN
*I *76:SETN I *D DFFASRHQNx1_ASAP7_75t_R
*I *78:SETN I *D DFFASRHQNx1_ASAP7_75t_R
*I *75:SETN I *D DFFASRHQNx1_ASAP7_75t_R
*I *77:SETN I *D DFFASRHQNx1_ASAP7_75t_R
*I *79:Y O *D BUFx2_ASAP7_75t_R
*CAP
1 *76:SETN 7.79798e-06
2 *78:SETN 1.77712e-05
3 *75:SETN 0
4 *77:SETN 2.07306e-05
5 *79:Y 1.27927e-05
6 *27:28 4.37105e-05
7 *27:21 3.24983e-05
8 *27:6 4.78803e-05
9 *76:SETN *75:RESETN 0
10 *77:SETN *37:8 2.1664e-06
11 *27:6 *54:20 1.04475e-06
12 *27:28 *75:RESETN 0
13 *142:A *77:SETN 2.25106e-05
14 *142:A *27:6 1.75355e-05
15 *2:17 *76:SETN 1.10561e-06
16 *2:17 *27:21 1.10561e-06
17 *2:17 *27:28 2.55486e-06
18 *24:10 *27:21 0
*RES
1 *79:Y *27:6 24.1527 
2 *27:6 *77:SETN 49.237 
3 *27:6 *27:21 30.1528 
4 *27:21 *75:SETN 17.2 
5 *27:21 *27:28 12.3897 
6 *27:28 *78:SETN 27.0943 
7 *27:28 *76:SETN 22.8317 
*END

*D_NET *30 0.000658344
*CONN
*I *66:A2 I *D OA21x2_ASAP7_75t_R
*I *63:B I *D AND3x1_ASAP7_75t_R
*I *61:A I *D INVx2_ASAP7_75t_R
*I *65:A I *D NAND2x1_ASAP7_75t_R
*I *71:C I *D AND4x1_ASAP7_75t_R
*I *138:Y O *D BUFx2_ASAP7_75t_R
*CAP
1 *66:A2 1.56349e-05
2 *63:B 1.85263e-06
3 *61:A 1.71513e-05
4 *65:A 0
5 *71:C 5.51371e-06
6 *138:Y 2.30331e-05
7 *30:49 3.30878e-05
8 *30:41 4.30873e-05
9 *30:35 5.9661e-05
10 *30:16 2.42417e-05
11 *30:14 3.95759e-05
12 *30:10 6.26091e-05
13 *66:A2 *42:14 6.26851e-06
14 *71:C *46:8 8.87763e-06
15 *30:10 *78:RESETN 0
16 *30:10 *40:16 9.34096e-06
17 *30:35 *70:A1 2.98814e-08
18 *63:A *30:49 2.61274e-05
19 *66:B *61:A 3.56177e-06
20 *66:B *30:49 6.33382e-06
21 *1:18 *30:14 9.98013e-06
22 *1:18 *30:35 1.2428e-05
23 *1:33 *66:A2 1.40419e-08
24 *1:41 *30:41 5.22376e-06
25 *3:10 *30:35 0
26 *5:21 *30:49 0
27 *6:14 *61:A 1.07377e-06
28 *7:14 *30:35 0
29 *8:8 *30:49 1.19584e-06
30 *8:12 *30:14 9.97376e-06
31 *8:12 *30:35 3.5744e-05
32 *9:8 *66:A2 5.80445e-06
33 *9:8 *30:41 1.08553e-05
34 *10:14 *30:14 0.000164512
35 *10:14 *30:35 1.53347e-06
36 *19:8 *30:10 0
37 *24:27 *30:35 1.40171e-05
*RES
1 *138:Y *30:10 47.6981 
2 *30:10 *30:14 44.2547 
3 *30:14 *30:16 17.2 
4 *30:16 *71:C 38.1066 
5 *30:16 *30:35 47.247 
6 *30:35 *30:41 33.1616 
7 *30:41 *30:49 47.6893 
8 *30:49 *65:A 17.2 
9 *30:49 *61:A 27.3617 
10 *30:41 *63:B 18.2696 
11 *30:35 *66:A2 44.9566 
*END

*D_NET *31 0.000244638
*CONN
*P counter_value_o[0] O
*I *139:Y O *D BUFx2_ASAP7_75t_R
*CAP
1 counter_value_o[0] 2.18047e-05
2 *139:Y 3.99592e-05
3 *31:12 4.43069e-05
4 *31:8 6.24615e-05
5 counter_value_o[0] counter_value_o[1] 0
6 counter_value_o[0] counter_value_o[2] 2.10259e-05
7 counter_value_o[0] *32:16 0
8 *31:8 *51:22 4.13457e-06
9 *31:12 *78:CLK 0
10 *19:8 *31:12 0
11 *25:9 counter_value_o[0] 5.09455e-05
*RES
1 *139:Y *31:8 48.8403 
2 *31:8 *31:12 34.1888 
3 *31:12 counter_value_o[0] 18.776 
*END

*D_NET *32 0.000297163
*CONN
*P counter_value_o[1] O
*I *140:Y O *D BUFx2_ASAP7_75t_R
*CAP
1 counter_value_o[1] 3.54698e-05
2 *140:Y 0
3 *32:16 8.23232e-05
4 *32:10 8.05114e-05
5 *32:6 3.36579e-05
6 counter_value_o[1] counter_value_o[3] 1.92351e-05
7 *32:10 *75:RESETN 0
8 *32:10 *78:RESETN 1.56878e-06
9 counter_value_o[0] counter_value_o[1] 0
10 counter_value_o[0] *32:16 0
11 *7:14 *32:16 3.42717e-05
12 *8:18 *32:10 0
13 *9:12 *32:16 9.70856e-07
14 *10:14 *32:16 9.15379e-06
15 *25:9 *32:16 0
*RES
1 *140:Y *32:6 34.4 
2 *32:6 *32:10 40.5714 
3 *32:10 *32:16 38.7311 
4 *32:16 counter_value_o[1] 34.6774 
*END

*D_NET *33 0.000265486
*CONN
*P counter_value_o[2] O
*I *141:Y O *D BUFx3_ASAP7_75t_R
*CAP
1 counter_value_o[2] 6.89486e-06
2 *141:Y 2.85149e-05
3 *33:10 2.29091e-05
4 *33:6 4.45292e-05
5 counter_value_o[2] counter_value_o[3] 1.92351e-05
6 *33:6 *34:14 3.64245e-05
7 *33:10 *34:18 6.27365e-05
8 counter_value_o[0] counter_value_o[2] 2.10259e-05
9 *20:9 *33:10 2.32162e-05
*RES
1 *141:Y *33:6 42.3368 
2 *33:6 *33:10 40.5714 
3 *33:10 counter_value_o[2] 24.9377 
*END

*D_NET *34 0.000383429
*CONN
*P counter_value_o[3] O
*I *142:Y O *D BUFx3_ASAP7_75t_R
*CAP
1 counter_value_o[3] 5.48331e-06
2 *142:Y 3.47896e-05
3 *34:18 2.43587e-05
4 *34:14 7.1573e-05
5 *34:12 5.64545e-05
6 *34:6 3.85465e-05
7 *34:6 *38:8 1.26378e-06
8 *34:12 *39:12 1.15587e-05
9 counter_value_o[1] counter_value_o[3] 1.92351e-05
10 counter_value_o[2] counter_value_o[3] 1.92351e-05
11 *142:A *34:6 1.76928e-06
12 *19:23 *34:12 0
13 *33:6 *34:14 3.64245e-05
14 *33:10 *34:18 6.27365e-05
*RES
1 *142:Y *34:6 33.7796 
2 *34:6 *34:12 38.3422 
3 *34:12 *34:14 40.1119 