*SPEF "ieee 1481-1999"
*DESIGN "counter_board"
*DATE "16:05:23 Wednesday December 18, 2024"
*VENDOR "The OpenROAD Project"
*PROGRAM "OpenROAD"
*VERSION "v2.0-17595-gdb3156281"
*DESIGN_FLOW "NAME_SCOPE LOCAL" "PIN_CAP NONE"
*DIVIDER /
*DELIMITER :
*BUS_DELIMITER []
*T_UNIT 1 NS
*C_UNIT 1 PF
*R_UNIT 1 OHM
*L_UNIT 1 HENRY

*NAME_MAP
*1 clock_i
*2 net3
*3 net4
*4 net5
*5 net6
*6 enable_i
*7 n1_o
*8 reset_n_i
*9 counter_0/_00_
*10 counter_0/_01_
*11 counter_0/_02_
*12 counter_0/_03_
*13 counter_0/_04_
*14 counter_0/_05_
*15 counter_0/_06_
*16 counter_0/_07_
*17 counter_0/_08_
*18 counter_0/_09_
*19 counter_0/_10_
*20 counter_0/_11_
*21 counter_0/_12_
*22 counter_0/_13_
*23 counter_0/_14_
*24 counter_0/_15_
*25 counter_0/_16_
*26 counter_0/_17_
*27 counter_0/_18_
*28 clknet_0_clock_i
*31 net1
*32 net2
*33 counter_value_o[0]
*34 counter_value_o[1]
*35 counter_value_o[2]
*36 counter_value_o[3]
*37 net7
*38 net8
*39 net9
*40 net10
*41 clknet_1_0__leaf_clock_i
*42 clknet_1_1__leaf_clock_i
*43 net11
*44 net12
*45 net13
*46 net14
*47 net15
*48 net16
*49 net17
*50 net18
*51 net22
*52 net23
*53 net24
*54 net25
*55 net19
*56 _0_
*57 counter_0/_20_
*58 counter_0/_21_
*59 counter_0/_22_
*60 counter_0/_23_
*61 counter_0/_24_
*62 counter_0/_25_
*63 counter_0/_26_
*64 counter_0/_27_
*65 counter_0/_28_
*66 counter_0/_29_
*67 counter_0/_30_
*68 counter_0/_31_
*69 counter_0/_32_
*70 counter_0/_33_
*71 counter_0/_34_
*72 counter_0/_35_
*73 counter_0/_36_
*74 counter_0/_37_
*75 clkbuf_0_clock_i
*76 counter_0/n20_q\[0\]\$_DFFE_PP0P_
*77 counter_0/n20_q\[1\]\$_DFFE_PP0P_
*78 counter_0/n20_q\[2\]\$_DFFE_PP0P_
*79 counter_0/n20_q\[3\]\$_DFFE_PP0P_
*80 PHY_EDGE_ROW_0_Right_0
*81 PHY_EDGE_ROW_1_Right_1
*82 PHY_EDGE_ROW_2_Right_2
*83 PHY_EDGE_ROW_3_Right_3
*84 PHY_EDGE_ROW_4_Right_4
*85 PHY_EDGE_ROW_5_Right_5
*86 PHY_EDGE_ROW_6_Right_6
*87 PHY_EDGE_ROW_7_Right_7
*88 PHY_EDGE_ROW_8_Right_8
*89 PHY_EDGE_ROW_9_Right_9
*90 PHY_EDGE_ROW_10_Right_10
*91 PHY_EDGE_ROW_11_Right_11
*92 PHY_EDGE_ROW_12_Right_12
*93 PHY_EDGE_ROW_13_Right_13
*94 PHY_EDGE_ROW_14_Right_14
*95 PHY_EDGE_ROW_15_Right_15
*96 PHY_EDGE_ROW_16_Right_16
*97 PHY_EDGE_ROW_17_Right_17
*98 PHY_EDGE_ROW_18_Right_18
*99 PHY_EDGE_ROW_19_Right_19
*100 PHY_EDGE_ROW_20_Right_20
*101 PHY_EDGE_ROW_21_Right_21
*102 PHY_EDGE_ROW_22_Right_22
*103 PHY_EDGE_ROW_23_Right_23
*104 PHY_EDGE_ROW_24_Right_24
*105 PHY_EDGE_ROW_25_Right_25
*106 PHY_EDGE_ROW_26_Right_26
*107 PHY_EDGE_ROW_27_Right_27
*108 PHY_EDGE_ROW_28_Right_28
*109 PHY_EDGE_ROW_0_Left_29
*110 PHY_EDGE_ROW_1_Left_30
*111 PHY_EDGE_ROW_2_Left_31
*112 PHY_EDGE_ROW_3_Left_32
*113 PHY_EDGE_ROW_4_Left_33
*114 PHY_EDGE_ROW_5_Left_34
*115 PHY_EDGE_ROW_6_Left_35
*116 PHY_EDGE_ROW_7_Left_36
*117 PHY_EDGE_ROW_8_Left_37
*118 PHY_EDGE_ROW_9_Left_38
*119 PHY_EDGE_ROW_10_Left_39
*120 PHY_EDGE_ROW_11_Left_40
*121 PHY_EDGE_ROW_12_Left_41
*122 PHY_EDGE_ROW_13_Left_42
*123 PHY_EDGE_ROW_14_Left_43
*124 PHY_EDGE_ROW_15_Left_44
*125 PHY_EDGE_ROW_16_Left_45
*126 PHY_EDGE_ROW_17_Left_46
*127 PHY_EDGE_ROW_18_Left_47
*128 PHY_EDGE_ROW_19_Left_48
*129 PHY_EDGE_ROW_20_Left_49
*130 PHY_EDGE_ROW_21_Left_50
*131 PHY_EDGE_ROW_22_Left_51
*132 PHY_EDGE_ROW_23_Left_52
*133 PHY_EDGE_ROW_24_Left_53
*134 PHY_EDGE_ROW_25_Left_54
*135 PHY_EDGE_ROW_26_Left_55
*136 PHY_EDGE_ROW_27_Left_56
*137 PHY_EDGE_ROW_28_Left_57
*138 input1
*139 input2
*140 output3
*141 output4
*142 output5
*143 output6
*144 counter_0/n20_q\[0\]\$_DFFE_PP0P__7
*145 counter_0/n20_q\[1\]\$_DFFE_PP0P__8
*146 counter_0/n20_q\[2\]\$_DFFE_PP0P__9
*147 counter_0/n20_q\[3\]\$_DFFE_PP0P__10
*148 clkbuf_1_0__f_clock_i
*149 clkbuf_1_1__f_clock_i
*150 rebuffer1
*151 rebuffer2
*152 rebuffer3
*153 rebuffer4
*154 rebuffer5
*155 rebuffer6
*156 rebuffer7
*157 rebuffer8
*158 rebuffer12
*159 rebuffer13
*160 rebuffer14
*161 rebuffer15
*162 rebuffer9
*163 FILLER_0_2
*164 FILLER_0_24
*165 FILLER_0_46
*166 FILLER_0_68
*167 FILLER_0_90
*168 FILLER_0_112
*169 FILLER_0_134
*170 FILLER_0_144
*171 FILLER_1_2
*172 FILLER_1_24
*173 FILLER_1_46
*174 FILLER_1_68
*175 FILLER_1_90
*176 FILLER_1_112
*177 FILLER_1_134
*178 FILLER_1_144
*179 FILLER_2_2
*180 FILLER_2_24
*181 FILLER_2_46
*182 FILLER_2_68
*183 FILLER_2_90
*184 FILLER_2_112
*185 FILLER_2_134
*186 FILLER_2_144
*187 FILLER_3_2
*188 FILLER_3_24
*189 FILLER_3_46
*190 FILLER_3_68
*191 FILLER_3_90
*192 FILLER_3_112
*193 FILLER_3_134
*194 FILLER_3_144
*195 FILLER_4_2
*196 FILLER_4_24
*197 FILLER_4_46
*198 FILLER_4_68
*199 FILLER_4_90
*200 FILLER_4_112
*201 FILLER_4_134
*202 FILLER_4_144
*203 FILLER_5_2
*204 FILLER_5_24
*205 FILLER_5_46
*206 FILLER_5_68
*207 FILLER_5_90
*208 FILLER_5_112
*209 FILLER_5_134
*210 FILLER_5_144
*211 FILLER_6_2
*212 FILLER_6_24
*213 FILLER_6_46
*214 FILLER_6_68
*215 FILLER_6_90
*216 FILLER_6_112
*217 FILLER_6_134
*218 FILLER_6_144
*219 FILLER_7_2
*220 FILLER_7_24
*221 FILLER_7_46
*222 FILLER_7_68
*223 FILLER_7_90
*224 FILLER_7_112
*225 FILLER_7_134
*226 FILLER_7_144
*227 FILLER_8_2
*228 FILLER_8_24
*229 FILLER_8_46
*230 FILLER_8_68
*231 FILLER_8_90
*232 FILLER_8_112
*233 FILLER_8_134
*234 FILLER_8_144
*235 FILLER_9_2
*236 FILLER_9_24
*237 FILLER_9_46
*238 FILLER_9_68
*239 FILLER_9_90
*240 FILLER_9_112
*241 FILLER_9_134
*242 FILLER_9_144
*243 FILLER_10_2
*244 FILLER_10_24
*245 FILLER_10_46
*246 FILLER_10_68
*247 FILLER_10_90
*248 FILLER_10_112
*249 FILLER_10_134
*250 FILLER_10_144
*251 FILLER_11_2
*252 FILLER_11_24
*253 FILLER_11_46
*254 FILLER_11_68
*255 FILLER_11_90
*256 FILLER_11_112
*257 FILLER_11_134
*258 FILLER_11_144
*259 FILLER_12_2
*260 FILLER_12_24
*261 FILLER_12_46
*262 FILLER_12_68
*263 FILLER_12_90
*264 FILLER_12_112
*265 FILLER_12_134
*266 FILLER_12_144
*267 FILLER_13_2
*268 FILLER_13_24
*269 FILLER_13_46
*270 FILLER_13_68
*271 FILLER_13_90
*272 FILLER_13_112
*273 FILLER_13_134
*274 FILLER_13_144
*275 FILLER_14_2
*276 FILLER_14_9
*277 FILLER_14_11
*278 FILLER_14_28
*279 FILLER_14_50
*280 FILLER_14_72
*281 FILLER_14_94
*282 FILLER_14_116
*283 FILLER_14_138
*284 FILLER_14_144
*285 FILLER_15_2
*286 FILLER_15_16
*287 FILLER_15_22
*288 FILLER_15_28
*289 FILLER_15_34
*290 FILLER_15_41
*291 FILLER_15_63
*292 FILLER_15_85
*293 FILLER_15_107
*294 FILLER_15_129
*295 FILLER_15_143
*296 FILLER_16_2
*297 FILLER_16_60
*298 FILLER_16_82
*299 FILLER_16_104
*300 FILLER_16_126
*301 FILLER_16_137
*302 FILLER_16_143
*303 FILLER_17_2
*304 FILLER_17_8
*305 FILLER_17_10
*306 FILLER_17_54
*307 FILLER_17_66
*308 FILLER_17_88
*309 FILLER_17_110
*310 FILLER_17_132
*311 FILLER_17_142
*312 FILLER_17_144
*313 FILLER_18_2
*314 FILLER_18_4
*315 FILLER_18_39
*316 FILLER_18_41
*317 FILLER_18_67
*318 FILLER_18_89
*319 FILLER_18_111
*320 FILLER_18_133
*321 FILLER_18_143
*322 FILLER_19_2
*323 FILLER_19_29
*324 FILLER_19_71
*325 FILLER_19_93
*326 FILLER_19_115
*327 FILLER_19_137
*328 FILLER_19_143
*329 FILLER_20_2
*330 FILLER_20_20
*331 FILLER_20_32
*332 FILLER_20_65
*333 FILLER_20_87
*334 FILLER_20_109
*335 FILLER_20_131
*336 FILLER_21_2
*337 FILLER_21_16
*338 FILLER_21_25
*339 FILLER_21_34
*340 FILLER_21_40
*341 FILLER_21_42
*342 FILLER_21_48
*343 FILLER_21_50
*344 FILLER_21_61
*345 FILLER_21_83
*346 FILLER_21_105
*347 FILLER_21_127
*348 FILLER_21_141
*349 FILLER_22_2
*350 FILLER_22_24
*351 FILLER_22_46
*352 FILLER_22_68
*353 FILLER_22_90
*354 FILLER_22_112
*355 FILLER_22_134
*356 FILLER_22_144
*357 FILLER_23_2
*358 FILLER_23_8
*359 FILLER_23_15
*360 FILLER_23_37
*361 FILLER_23_59
*362 FILLER_23_81
*363 FILLER_23_103
*364 FILLER_23_125
*365 FILLER_23_139
*366 FILLER_24_2
*367 FILLER_24_24
*368 FILLER_24_46
*369 FILLER_24_68
*370 FILLER_24_90
*371 FILLER_24_112
*372 FILLER_24_134
*373 FILLER_24_144
*374 FILLER_25_2
*375 FILLER_25_24
*376 FILLER_25_46
*377 FILLER_25_68
*378 FILLER_25_90
*379 FILLER_25_112
*380 FILLER_25_134
*381 FILLER_25_144
*382 FILLER_26_2
*383 FILLER_26_24
*384 FILLER_26_46
*385 FILLER_26_68
*386 FILLER_26_90
*387 FILLER_26_112
*388 FILLER_26_134
*389 FILLER_26_144
*390 FILLER_27_2
*391 FILLER_27_24
*392 FILLER_27_46
*393 FILLER_27_68
*394 FILLER_27_90
*395 FILLER_27_112
*396 FILLER_27_134
*397 FILLER_27_144
*398 FILLER_28_2
*399 FILLER_28_24
*400 FILLER_28_46
*401 FILLER_28_68
*402 FILLER_28_90
*403 FILLER_28_112
*404 FILLER_28_134
*405 FILLER_28_144

*PORTS
clock_i I
counter_value_o[0] O
counter_value_o[1] O
counter_value_o[2] O
counter_value_o[3] O
enable_i I
reset_n_i I

*D_NET *1 0.000703003
*CONN
*P clock_i I
*I *75:A I *D BUFx2_ASAP7_75t_R
*CAP
1 clock_i 0.000154337
2 *75:A 0
3 *1:15 1.15503e-06
4 *1:9 0.000151244
5 *1:7 0.000150089
6 *1:5 0.000154337
7 *1:9 *10:12 7.04564e-06
8 *1:9 *15:22 8.12513e-06
9 *1:9 *15:28 3.42717e-05
10 *1:9 *16:14 0
11 *1:9 *19:12 1.9097e-05
12 *1:9 *20:33 1.01524e-05
13 *1:9 *45:14 1.31482e-05
14 *1:9 *50:14 0
*RES
1 clock_i *1:5 73.8463 
2 *1:5 *1:7 11.8 
3 *1:7 *1:9 63.9033 
4 *1:9 *1:15 35.057 
5 *1:15 *75:A 17.2 
*END

*D_NET *2 0.000273188
*CONN
*I *160:A I *D BUFx2_ASAP7_75t_R
*I *65:A1 I *D AO21x1_ASAP7_75t_R
*I *74:A I *D HAxp5_ASAP7_75t_R
*I *60:Y O *D INVx2_ASAP7_75t_R
*CAP
1 *160:A 0
2 *65:A1 0
3 *74:A 7.8452e-06
4 *60:Y 1.94693e-05
5 *2:26 2.49245e-05
6 *2:20 3.4661e-05
7 *2:12 3.93134e-05
8 *2:8 4.1201e-05
9 *74:A *13:8 3.56177e-06
10 *74:A *14:8 2.03526e-06
11 *2:8 *20:8 0
12 *2:8 *20:16 0
13 *2:8 *24:10 1.62854e-06
14 *2:20 *65:A2 6.92634e-06
15 *2:20 *65:B 1.04475e-06
16 *2:20 *71:B 7.63254e-07
17 *2:20 *14:14 0
18 *2:20 *16:10 1.7743e-05
19 *2:20 *22:10 1.49407e-08
20 *2:20 *45:14 8.29207e-07
21 *2:26 *63:A 1.13248e-05
22 *2:26 *71:B 1.09539e-05
23 *2:26 *13:10 1.90971e-05
24 *2:26 *21:12 1.01562e-05
25 *2:26 *31:42 1.96943e-05
*RES
1 *60:Y *2:8 47.3528 
2 *2:8 *2:12 29.501 
3 *2:12 *2:20 48.5038 
4 *2:20 *2:26 35.3594 
5 *2:26 *74:A 39.2134 
6 *2:20 *65:A1 17.2 
7 *2:12 *160:A 17.2 
*END

*D_NET *3 0.000149288
*CONN
*I *157:A I *D BUFx3_ASAP7_75t_R
*I *74:B I *D HAxp5_ASAP7_75t_R
*I *59:Y O *D INVx2_ASAP7_75t_R
*CAP
1 *157:A 1.43623e-05
2 *74:B 0
3 *59:Y 1.04574e-05
4 *3:14 3.05455e-05
5 *3:8 5.53652e-05
6 *157:A *7:12 1.59615e-06
7 *157:A *11:40 4.20412e-06
8 *157:A *15:22 0
9 *157:A *19:8 2.84286e-06
10 *157:A *50:8 0
11 *3:8 *59:A 2.96818e-06
12 *3:8 *27:14 2.20493e-06
13 *3:14 *9:10 2.66797e-07
14 *3:14 *9:46 1.51653e-06
15 *3:14 *11:21 1.07573e-06
16 *3:14 *19:8 5.60557e-06
17 *3:14 *27:14 1.62763e-05
*RES
1 *59:Y *3:8 40.8179 
2 *3:8 *3:14 37.3853 
3 *3:14 *74:B 17.2 
4 *3:8 *157:A 44.9585 
*END

*D_NET *4 0.000314374
*CONN
*I *72:B I *D AND4x1_ASAP7_75t_R
*I *142:A I *D BUFx2_ASAP7_75t_R
*I *57:Y O *D INVx2_ASAP7_75t_R
*CAP
1 *72:B 1.51306e-06
2 *142:A 0
3 *57:Y 4.12326e-06
4 *4:37 2.03823e-05
5 *4:29 3.23366e-05
6 *4:16 3.00817e-05
7 *4:10 8.91295e-05
8 *4:8 4.97037e-05
9 *72:B *72:A 5.62196e-06
10 *72:B *5:16 2.12481e-06
11 *4:8 *69:A 2.66797e-07
12 *4:10 *77:SETN 0
13 *4:10 *79:SETN 1.45743e-06
14 *4:10 *162:A 0
15 *4:10 *10:12 8.48283e-06
16 *4:10 *10:44 4.10928e-06
17 *4:10 *11:21 0
18 *4:10 *15:22 3.07779e-06
19 *4:10 *15:28 0
20 *4:10 *15:30 0
21 *4:10 *38:8 0
22 *4:10 *40:8 0
23 *4:16 *162:A 0
24 *4:16 *50:30 3.29001e-05
25 *4:37 *162:A 2.35854e-06
26 *4:37 *9:16 1.86792e-06
27 *4:37 *17:12 2.47767e-05
28 *4:37 *31:10 5.97629e-08
*RES
1 *57:Y *4:8 36.0045 
2 *4:8 *4:10 34.3531 
3 *4:10 *4:16 40.3145 
4 *4:16 *142:A 17.2 
5 *4:10 *4:29 40.4903 
6 *4:29 *4:37 43.3279 
7 *4:37 *72:B 36.0045 
*END

*D_NET *5 0.000286369
*CONN
*I *72:D I *D AND4x1_ASAP7_75t_R
*I *143:A I *D BUFx3_ASAP7_75t_R
*I *58:Y O *D INVx1_ASAP7_75t_R
*CAP
1 *72:D 1.49098e-06
2 *143:A 9.85325e-06
3 *58:Y 8.01046e-06
4 *5:28 2.9387e-05
5 *5:22 6.73385e-05
6 *5:16 7.45144e-05
7 *5:8 3.62111e-05
8 *72:D *72:A 5.85387e-06
9 *72:D *72:C 1.95129e-06
10 *143:A *50:30 1.1364e-05
11 *5:8 *9:16 5.49212e-07
12 *5:8 *26:8 5.76713e-06
13 *5:8 *27:14 3.38548e-06
14 *5:8 *31:25 6.11785e-06
15 *5:16 *72:A 1.56713e-06
16 *5:16 *72:C 7.14604e-06
17 *5:16 *11:8 0
18 *5:16 *31:10 4.38963e-06
19 *5:16 *31:25 4.38963e-06
20 *5:16 *50:26 4.26751e-07
21 *5:22 *162:A 1.06372e-06
22 *5:22 *6:13 7.72307e-07
23 *5:22 *31:6 0
24 *5:28 *36:8 2.69463e-06
25 *5:28 *50:36 0
26 *72:B *5:16 2.12481e-06
*RES
1 *58:Y *5:8 41.158 
2 *5:8 *5:16 47.3775 
3 *5:16 *5:22 38.2282 
4 *5:22 *5:28 47.916 
5 *5:28 *143:A 25.2224 
6 *5:8 *72:D 36.0045 
*END

*D_NET *6 0.000263847
*CONN
*P enable_i I
*I *138:A I *D BUFx2_ASAP7_75t_R
*CAP
1 enable_i 2.72857e-05
2 *138:A 0
3 *6:13 6.18702e-05
4 *6:11 6.18702e-05
5 *6:9 2.72857e-05
6 *6:9 counter_value_o[0] 3.20843e-05
7 *6:9 counter_value_o[1] 4.78872e-05
8 *6:9 counter_value_o[3] 2.33005e-06
9 *6:9 *36:12 2.4614e-06
10 *5:22 *6:13 7.72307e-07
*RES
1 enable_i *6:9 41.3106 
2 *6:9 *6:11 17.2 
3 *6:11 *6:13 34.7636 
4 *6:13 *138:A 17.2 
*END

*D_NET *7 0.000107254
*CONN
*I *61:A I *D INVx2_ASAP7_75t_R
*I *56:Y O *D INVx3_ASAP7_75t_R
*CAP
1 *61:A 0
2 *56:Y 4.6382e-06
3 *7:12 3.60759e-05
4 *7:8 4.07141e-05
5 *7:8 *12:33 4.10928e-06
6 *7:12 *155:A 2.28976e-06
7 *7:12 *11:40 0
8 *7:12 *11:44 5.2818e-06
9 *7:12 *15:10 1.25483e-05
10 *157:A *7:12 1.59615e-06
*RES
1 *56:Y *7:8 37.779 
2 *7:8 *7:12 34.8492 
3 *7:12 *61:A 17.2 
*END

*D_NET *8 0.000181079
*CONN
*P reset_n_i I
*I *139:A I *D BUFx2_ASAP7_75t_R
*CAP
1 reset_n_i 4.55602e-05
2 *139:A 0
3 *8:13 4.49791e-05
4 *8:9 9.05393e-05
*RES
1 reset_n_i *8:9 47.7195 
2 *8:9 *8:13 47.685 
3 *8:13 *139:A 17.2 
*END

*D_NET *9 0.000347856
*CONN
*I *73:A1 I *D AOI21x1_ASAP7_75t_R
*I *58:A I *D INVx1_ASAP7_75t_R
*I *63:C I *D OR3x1_ASAP7_75t_R
*I *79:QN O *D DFFASRHQNx1_ASAP7_75t_R
*CAP
1 *73:A1 0
2 *58:A 4.62567e-06
3 *63:C 0
4 *79:QN 0
5 *9:46 2.35784e-05
6 *9:24 3.37762e-06
7 *9:16 2.93964e-05
8 *9:10 4.59387e-05
9 *9:4 3.88726e-05
10 *9:10 *11:21 2.45028e-06
11 *9:10 *27:14 2.62137e-05
12 *9:16 *162:A 7.32095e-07
13 *9:16 *11:21 3.73518e-07
14 *9:16 *17:12 5.94622e-05
15 *9:16 *27:14 9.84606e-06
16 *9:16 *31:10 5.60551e-07
17 *9:16 *31:25 3.23873e-06
18 *9:16 *53:12 8.89785e-05
19 *9:24 *23:6 2.52755e-07
20 *9:46 *10:20 2.04215e-06
21 *9:46 *25:10 2.04215e-06
22 *9:46 *27:14 1.67336e-06
23 *9:46 *32:24 0
24 *3:14 *9:10 2.66797e-07
25 *3:14 *9:46 1.51653e-06
26 *4:37 *9:16 1.86792e-06
27 *5:8 *9:16 5.49212e-07
*RES
1 *79:QN *9:4 17.2 
2 *9:4 *9:10 28.8848 
3 *9:10 *9:16 39.7082 
4 *9:16 *9:24 36.1267 
5 *9:24 *63:C 17.2 
6 *9:10 *58:A 36.0045 
7 *9:4 *9:46 49.4071 
8 *9:46 *73:A1 17.2 
*END

*D_NET *10 0.000390336
*CONN
*I *161:A I *D BUFx2_ASAP7_75t_R
*I *57:A I *D INVx2_ASAP7_75t_R
*I *63:B I *D OR3x1_ASAP7_75t_R
*I *70:A I *D OR4x1_ASAP7_75t_R
*I *78:QN O *D DFFASRHQNx1_ASAP7_75t_R
*CAP
1 *161:A 0
2 *57:A 0
3 *63:B 2.02695e-06
4 *70:A 0
5 *78:QN 0
6 *10:57 1.11425e-05
7 *10:44 2.10676e-05
8 *10:31 3.46416e-05
9 *10:20 5.31868e-05
10 *10:12 5.08328e-05
11 *10:6 4.01858e-05
12 *63:B *63:A 5.62196e-06
13 *10:12 *19:12 4.40464e-05
14 *10:12 *40:8 6.13287e-06
15 *10:12 *50:14 5.15387e-07
16 *10:20 *70:B 3.05302e-06
17 *10:20 *70:C 9.31704e-06
18 *10:20 *20:41 1.35684e-06
19 *10:20 *25:10 5.17782e-06
20 *10:20 *32:24 1.49407e-08
21 *10:31 *63:A 2.53148e-05
22 *10:31 *70:B 2.96818e-06
23 *10:31 *154:A 6.7842e-07
24 *10:31 *12:10 0
25 *10:31 *13:10 2.4268e-05
26 *10:31 *13:40 1.52146e-05
27 *10:31 *50:18 0
28 *10:44 *15:10 0
29 *10:44 *15:22 0
30 *10:44 *38:8 0
31 *10:44 *40:8 1.67815e-06
32 *10:57 *69:A 9.08513e-06
33 *10:57 *38:8 0
34 *10:57 *54:8 1.12894e-06
35 *1:9 *10:12 7.04564e-06
36 *4:10 *10:12 8.48283e-06
37 *4:10 *10:44 4.10928e-06
38 *9:46 *10:20 2.04215e-06
*RES
1 *78:QN *10:6 34.4 
2 *10:6 *10:12 36.9078 
3 *10:12 *10:20 48.541 
4 *10:20 *70:A 17.2 
5 *10:20 *10:31 44.6534 
6 *10:31 *63:B 36.0045 
7 *10:6 *10:44 26.2107 
8 *10:44 *57:A 17.2 
9 *10:44 *10:57 41.5795 
10 *10:57 *161:A 17.2 
*END

*D_NET *11 0.000321783
*CONN
*I *156:A I *D BUFx3_ASAP7_75t_R
*I *59:A I *D INVx2_ASAP7_75t_R
*I *162:A I *D BUFx2_ASAP7_75t_R
*I *77:QN O *D DFFASRHQNx1_ASAP7_75t_R
*CAP
1 *156:A 0
2 *59:A 1.12212e-05
3 *162:A 2.18433e-05
4 *77:QN 6.79714e-06
5 *11:44 2.36923e-05
6 *11:40 5.21766e-05
7 *11:21 7.10744e-05
8 *11:8 6.00094e-05
9 *162:A *31:6 1.76928e-06
10 *162:A *31:10 0
11 *11:21 *15:22 7.62897e-06
12 *11:21 *19:8 8.13839e-06
13 *11:21 *27:14 0
14 *11:40 *15:10 1.27782e-06
15 *11:40 *15:16 6.7842e-07
16 *11:40 *15:22 5.79724e-07
17 *11:40 *19:8 6.33206e-07
18 *11:40 *32:32 0
19 *11:44 *155:A 3.37545e-05
20 *157:A *11:40 4.20412e-06
21 *3:8 *59:A 2.96818e-06
22 *3:14 *11:21 1.07573e-06
23 *4:10 *162:A 0
24 *4:10 *11:21 0
25 *4:16 *162:A 0
26 *4:37 *162:A 2.35854e-06
27 *5:16 *11:8 0
28 *5:22 *162:A 1.06372e-06
29 *7:12 *11:40 0
30 *7:12 *11:44 5.2818e-06
31 *9:10 *11:21 2.45028e-06
32 *9:16 *162:A 7.32095e-07
33 *9:16 *11:21 3.73518e-07
*RES
1 *77:QN *11:8 37.0741 
2 *11:8 *162:A 48.2808 
3 *11:8 *11:21 25.9056 
4 *11:21 *59:A 39.2134 
5 *11:21 *11:40 49.6869 
6 *11:40 *11:44 34.8492 
7 *11:44 *156:A 17.2 
*END

*D_NET *12 0.000539703
*CONN
*I *159:A I *D BUFx2_ASAP7_75t_R
*I *60:A I *D INVx2_ASAP7_75t_R
*I *152:A I *D BUFx2_ASAP7_75t_R
*I *70:C I *D OR4x1_ASAP7_75t_R
*I *76:QN O *D DFFASRHQNx1_ASAP7_75t_R
*CAP
1 *159:A 8.3891e-06
2 *60:A 1.3743e-05
3 *152:A 0
4 *70:C 1.98698e-06
5 *76:QN 4.16344e-05
6 *12:49 3.17661e-05
7 *12:45 3.08806e-05
8 *12:37 3.44986e-05
9 *12:33 6.12143e-05
10 *12:18 9.87267e-06
11 *12:10 5.81261e-05
12 *12:6 6.06908e-05
13 *60:A *45:8 3.16328e-06
14 *159:A *24:16 6.7842e-07
15 *159:A *24:20 2.71497e-05
16 *12:6 *71:B 7.63254e-07
17 *12:6 *31:42 0
18 *12:6 *45:22 3.56177e-06
19 *12:10 *50:18 4.71798e-05
20 *12:18 *32:24 8.2184e-06
21 *12:18 *50:18 4.40246e-06
22 *12:33 *24:20 3.99479e-05
23 *12:33 *32:32 0
24 *12:33 *48:10 0
25 *12:37 *64:C 5.79724e-07
26 *12:37 *13:40 2.13376e-07
27 *12:37 *24:16 0
28 *12:37 *31:70 4.74778e-06
29 *12:37 *31:76 0
30 *12:37 *48:10 1.64348e-06
31 *12:37 *49:8 8.46363e-06
32 *12:37 *51:8 8.2174e-07
33 *12:45 *64:C 7.89229e-06
34 *12:45 *70:B 5.19475e-06
35 *12:49 *31:76 6.70433e-06
36 *12:49 *44:8 5.51397e-07
37 *12:49 *45:8 1.59615e-06
38 *7:8 *12:33 4.10928e-06
39 *10:20 *70:C 9.31704e-06
40 *10:31 *12:10 0
*RES
1 *76:QN *12:6 33.7796 
2 *12:6 *12:10 34.6581 
3 *12:10 *12:18 39.89 
4 *12:18 *70:C 37.0741 
5 *12:10 *12:33 41.4408 
6 *12:33 *12:37 35.7845 
7 *12:37 *12:45 42.0293 
8 *12:45 *12:49 29.501 
9 *12:49 *152:A 17.2 
10 *12:49 *60:A 25.7572 
11 *12:33 *159:A 24.1527 
*END

*D_NET *13 0.000262905
*CONN
*I *151:A I *D BUFx3_ASAP7_75t_R
*I *150:A I *D BUFx3_ASAP7_75t_R
*I *63:A I *D OR3x1_ASAP7_75t_R
*I *74:CON O *D HAxp5_ASAP7_75t_R
*CAP
1 *151:A 0
2 *150:A 5.09329e-06
3 *63:A 1.18626e-05
4 *74:CON 4.48081e-06
5 *13:40 2.11617e-05
6 *13:10 2.38707e-05
7 *13:8 3.25574e-05
8 *63:A *21:12 6.10236e-08
9 *63:A *23:6 7.58545e-06
10 *150:A *71:B 1.27802e-05
11 *13:10 *21:12 1.02359e-06
12 *13:40 *20:33 3.7812e-05
13 *13:40 *31:70 0
14 *63:B *63:A 5.62196e-06
15 *74:A *13:8 3.56177e-06
16 *2:26 *63:A 1.13248e-05
17 *2:26 *13:10 1.90971e-05
18 *10:31 *63:A 2.53148e-05
19 *10:31 *13:10 2.4268e-05
20 *10:31 *13:40 1.52146e-05
21 *12:37 *13:40 2.13376e-07
*RES
1 *74:CON *13:8 37.0741 
2 *13:8 *13:10 9.01066 
3 *13:10 *63:A 45.55 
4 *13:10 *150:A 38.1438 
5 *13:8 *13:40 47.4347 
6 *13:40 *151:A 34.4 
*END

*D_NET *14 0.000129433
*CONN
*I *66:B I *D NAND2x1_ASAP7_75t_R
*I *74:SN O *D HAxp5_ASAP7_75t_R
*CAP
1 *66:B 0
2 *74:SN 2.42253e-05
3 *14:14 2.66938e-05
4 *14:8 5.09191e-05
5 *14:8 *64:B 1.52651e-06
6 *14:8 *31:57 1.44167e-06
7 *14:14 *65:A2 4.67779e-07
8 *14:14 *66:A 1.12894e-06
9 *14:14 *16:10 2.32626e-06
10 *14:14 *23:6 6.7842e-07
11 *14:14 *31:57 9.15354e-08
12 *14:14 *43:10 9.54315e-06
13 *14:14 *44:14 6.64764e-06
14 *14:14 *44:20 1.70708e-06
15 *74:A *14:8 2.03526e-06
16 *2:20 *14:14 0
*RES
1 *74:SN *14:8 44.5617 
2 *14:8 *14:14 35.0229 
3 *14:14 *66:B 17.2 
*END

*D_NET *15 0.000290753
*CONN
*I *79:SETN I *D DFFASRHQNx1_ASAP7_75t_R
*I *78:SETN I *D DFFASRHQNx1_ASAP7_75t_R
*I *76:SETN I *D DFFASRHQNx1_ASAP7_75t_R
*I *77:SETN I *D DFFASRHQNx1_ASAP7_75t_R
*I *61:Y O *D INVx2_ASAP7_75t_R
*CAP
1 *79:SETN 7.08707e-07
2 *78:SETN 1.10343e-05
3 *76:SETN 0
4 *77:SETN 5.72001e-06
5 *61:Y 6.7502e-06
6 *15:48 2.60024e-05
7 *15:30 1.35756e-05
8 *15:28 3.28071e-05
9 *15:22 3.06853e-05
10 *15:16 2.6478e-05
11 *15:10 1.3235e-05
12 *77:SETN *38:8 7.25627e-06
13 *78:SETN *76:RESETN 1.18924e-05
14 *78:SETN *19:18 0
15 *15:22 *19:12 3.93824e-06
16 *15:28 *19:12 1.36214e-05
17 *15:28 *38:8 4.92432e-06
18 *15:28 *40:8 3.04043e-06
19 *15:30 *38:8 9.43832e-06
20 *157:A *15:22 0
21 *1:9 *15:22 8.12513e-06
22 *1:9 *15:28 3.42717e-05
23 *4:10 *77:SETN 0
24 *4:10 *79:SETN 1.45743e-06
25 *4:10 *15:22 3.07779e-06
26 *4:10 *15:28 0
27 *4:10 *15:30 0
28 *7:12 *15:10 1.25483e-05
29 *10:44 *15:10 0
30 *10:44 *15:22 0
31 *11:21 *15:22 7.62897e-06
32 *11:40 *15:10 1.27782e-06
33 *11:40 *15:16 6.7842e-07
34 *11:40 *15:22 5.79724e-07
*RES
1 *61:Y *15:10 40.9596 
2 *15:10 *15:16 38.1438 
3 *15:16 *15:22 34.794 
4 *15:22 *15:28 27.2389 
5 *15:28 *15:30 7.88432 
6 *15:30 *77:SETN 22.8317 
7 *15:30 *76:SETN 17.2 
8 *15:28 *15:48 40.2831 
9 *15:48 *78:SETN 27.337 
10 *15:22 *79:SETN 35.6202 
*END

*D_NET *16 0.000273528
*CONN
*I *76:D I *D DFFASRHQNx1_ASAP7_75t_R
*I *65:Y O *D AO21x1_ASAP7_75t_R
*CAP
1 *76:D 0
2 *65:Y 1.05394e-05
3 *16:20 1.37509e-06
4 *16:14 7.7297e-05
5 *16:12 7.59219e-05
6 *16:10 1.05394e-05
7 *16:10 *53:8 0
8 *16:14 *32:20 1.58517e-05
9 *16:14 *44:14 3.92329e-06
10 *16:14 *45:14 1.729e-05
11 *16:14 *53:12 4.07205e-05
12 *16:20 *28:23 0
13 *1:9 *16:14 0
14 *2:20 *16:10 1.7743e-05
15 *14:14 *16:10 2.32626e-06
*RES
1 *65:Y *16:10 40.593 
2 *16:10 *16:12 17.2 
3 *16:12 *16:14 40.6903 
4 *16:14 *16:20 35.2447 
5 *16:20 *76:D 17.2 
*END

*D_NET *17 0.000298547
*CONN
*I *77:D I *D DFFASRHQNx1_ASAP7_75t_R
*I *67:Y O *D OA21x2_ASAP7_75t_R
*CAP
1 *77:D 0
2 *67:Y 1.55797e-06
3 *17:20 3.12295e-05
4 *17:12 8.66138e-05
5 *17:8 5.69423e-05
6 *17:12 *36:12 0
7 *17:12 *53:12 3.74451e-05
8 *17:20 *77:CLK 5.19552e-07
9 *4:37 *17:12 2.47767e-05
10 *9:16 *17:12 5.94622e-05
*RES
1 *67:Y *17:8 35.2447 
2 *17:8 *17:12 43.6054 
3 *17:12 *17:20 48.6154 
4 *17:20 *77:D 17.2 
*END

*D_NET *18 9.34027e-05
*CONN
*I *78:D I *D DFFASRHQNx1_ASAP7_75t_R
*I *69:Y O *D XNOR2x1_ASAP7_75t_R
*CAP
1 *78:D 0
2 *69:Y 2.21851e-05
3 *18:18 1.86063e-05
4 *18:10 4.07914e-05
5 *18:10 *28:10 1.182e-05
*RES
1 *69:Y *18:10 48.5038 
2 *18:10 *18:18 42.5924 
3 *18:18 *78:D 34.4 
*END

*D_NET *19 0.000180929
*CONN
*I *79:D I *D DFFASRHQNx1_ASAP7_75t_R
*I *73:Y O *D AOI21x1_ASAP7_75t_R
*CAP
1 *79:D 0
2 *73:Y 8.42445e-06
3 *19:18 2.55308e-06
4 *19:12 3.30786e-05
5 *19:8 3.89499e-05
6 *19:18 *42:8 0
7 *78:SETN *19:18 0
8 *157:A *19:8 2.84286e-06
9 *1:9 *19:12 1.9097e-05
10 *3:14 *19:8 5.60557e-06
11 *10:12 *19:12 4.40464e-05
12 *11:21 *19:8 8.13839e-06
13 *11:40 *19:8 6.33206e-07
14 *15:22 *19:12 3.93824e-06
15 *15:28 *19:12 1.36214e-05
*RES
1 *73:Y *19:8 42.1905 
2 *19:8 *19:12 35.1644 
3 *19:12 *19:18 36.1834 
4 *19:18 *79:D 17.2 
*END

*D_NET *20 0.000327684
*CONN
*I *68:B I *D NOR2x2_ASAP7_75t_R
*I *70:D I *D OR4x1_ASAP7_75t_R
*I *65:A2 I *D AO21x1_ASAP7_75t_R
*I *62:Y O *D INVx2_ASAP7_75t_R
*CAP
1 *68:B 0
2 *70:D 0
3 *65:A2 8.15121e-06
4 *62:Y 2.14514e-05
5 *20:41 2.97645e-06
6 *20:33 4.23375e-05
7 *20:16 7.2381e-05
8 *20:8 4.63202e-05
9 *65:A2 *65:B 6.7842e-07
10 *65:A2 *22:10 1.25267e-05
11 *65:A2 *44:14 1.64665e-05
12 *20:8 *24:10 0
13 *20:8 *45:14 2.22736e-06
14 *20:16 *68:A 1.59615e-06
15 *20:16 *43:18 0
16 *20:16 *45:14 1.98924e-06
17 *20:33 *22:10 1.14735e-05
18 *20:33 *43:18 1.12894e-06
19 *20:33 *44:14 2.43323e-05
20 *20:33 *45:14 1.49407e-08
21 *20:33 *50:14 1.17526e-06
22 *20:41 *32:24 2.03413e-06
23 *20:41 *50:18 1.70708e-06
24 *1:9 *20:33 1.01524e-05
25 *2:8 *20:8 0
26 *2:8 *20:16 0
27 *2:20 *65:A2 6.92634e-06
28 *10:20 *20:41 1.35684e-06
29 *13:40 *20:33 3.7812e-05
30 *14:14 *65:A2 4.67779e-07
*RES
1 *62:Y *20:8 48.4791 
2 *20:8 *20:16 46.3645 
3 *20:16 *65:A2 43.2973 
4 *20:16 *20:33 39.5359 
5 *20:33 *20:41 36.1267 
6 *20:41 *70:D 17.2 
7 *20:8 *68:B 34.4 
*END

*D_NET *21 7.98967e-05
*CONN
*I *64:A I *D AND3x1_ASAP7_75t_R
*I *63:Y O *D OR3x1_ASAP7_75t_R
*CAP
1 *64:A 0
2 *63:Y 1.95652e-06
3 *21:12 2.66901e-05
4 *21:8 2.86466e-05
5 *21:8 *23:6 5.62196e-06
6 *21:12 *66:A 6.10236e-08
7 *21:12 *31:57 2.05027e-06
8 *21:12 *31:70 3.62937e-06
9 *63:A *21:12 6.10236e-08
10 *2:26 *21:12 1.01562e-05
11 *13:10 *21:12 1.02359e-06
*RES
1 *63:Y *21:8 36.0045 
2 *21:8 *21:12 34.6581 
3 *21:12 *64:A 17.2 
*END

*D_NET *22 7.46092e-05
*CONN
*I *65:B I *D AO21x1_ASAP7_75t_R
*I *64:Y O *D AND3x1_ASAP7_75t_R
*CAP
1 *65:B 2.94079e-06
2 *64:Y 1.71502e-05
3 *22:10 2.0091e-05
4 *22:10 *43:18 6.69974e-06
5 *22:10 *45:14 1.98924e-06
6 *65:A2 *65:B 6.7842e-07
7 *65:A2 *22:10 1.25267e-05
8 *2:20 *65:B 1.04475e-06
9 *2:20 *22:10 1.49407e-08
10 *20:33 *22:10 1.14735e-05
*RES
1 *64:Y *22:10 47.0977 
2 *22:10 *65:B 36.0045 
*END

*D_NET *23 0.000122738
*CONN
*I *67:B I *D OA21x2_ASAP7_75t_R
*I *66:Y O *D NAND2x1_ASAP7_75t_R
*CAP
1 *67:B 0
2 *66:Y 4.499e-05
3 *23:12 1.95431e-06
4 *23:6 4.69443e-05
5 *23:6 *50:20 5.0551e-07
6 *23:12 *71:A1 5.97629e-08
7 *23:12 *32:24 5.89431e-06
8 *23:12 *50:18 8.25126e-06
9 *63:A *23:6 7.58545e-06
10 *9:24 *23:6 2.52755e-07
11 *14:14 *23:6 6.7842e-07
12 *21:8 *23:6 5.62196e-06
*RES
1 *66:Y *23:6 35.9189 
2 *23:6 *23:12 37.2158 
3 *23:12 *67:B 17.2 
*END

*D_NET *24 0.000491317
*CONN
*I *69:B I *D XNOR2x1_ASAP7_75t_R
*I *68:Y O *D NOR2x2_ASAP7_75t_R
*CAP
1 *69:B 1.27555e-05
2 *68:Y 0
3 *24:20 0.000120533
4 *24:18 0.000107777
5 *24:16 4.06804e-05
6 *24:10 7.03387e-05
7 *24:6 2.96583e-05
8 *69:B *76:RESETN 0
9 *69:B *42:8 4.24779e-06
10 *24:16 *158:A 2.79435e-06
11 *24:16 *51:8 7.84037e-07
12 *24:20 *56:A 5.51397e-07
13 *24:20 *158:A 3.17915e-05
14 *159:A *24:16 6.7842e-07
15 *159:A *24:20 2.71497e-05
16 *2:8 *24:10 1.62854e-06
17 *12:33 *24:20 3.99479e-05
18 *12:37 *24:16 0
19 *20:8 *24:10 0
*RES
1 *68:Y *24:6 34.4 
2 *24:6 *24:10 38.6003 
3 *24:10 *24:16 37.7217 
4 *24:16 *24:18 17.2 
5 *24:18 *24:20 63.6442 
6 *24:20 *69:B 45.6633 
*END

*D_NET *25 5.21269e-05
*CONN
*I *73:A2 I *D AOI21x1_ASAP7_75t_R
*I *70:Y O *D OR4x1_ASAP7_75t_R
*CAP
1 *73:A2 0
2 *70:Y 2.1903e-05
3 *25:10 2.1903e-05
4 *25:10 *27:14 1.10099e-06
5 *9:46 *25:10 2.04215e-06
6 *10:20 *25:10 5.17782e-06
*RES
1 *70:Y *25:10 45.2382 
2 *25:10 *73:A2 34.4 
*END

*D_NET *26 7.20753e-05
*CONN
*I *72:A I *D AND4x1_ASAP7_75t_R
*I *71:Y O *D OAI21x1_ASAP7_75t_R
*CAP
1 *72:A 9.64011e-06
2 *71:Y 7.98183e-06
3 *26:8 1.76219e-05
4 *72:A *72:C 2.20964e-06
5 *72:A *27:8 1.52651e-06
6 *72:A *31:25 1.32074e-05
7 *26:8 *71:A1 1.07781e-06
8 *72:B *72:A 5.62196e-06
9 *72:D *72:A 5.85387e-06
10 *5:8 *26:8 5.76713e-06
11 *5:16 *72:A 1.56713e-06
*RES
1 *71:Y *26:8 40.0317 
2 *26:8 *72:A 42.9572 
*END

*D_NET *27 0.00015382
*CONN
*I *73:B I *D AOI21x1_ASAP7_75t_R
*I *72:Y O *D AND4x1_ASAP7_75t_R
*CAP
1 *73:B 0
2 *72:Y 1.02288e-05
3 *27:14 2.89639e-05
4 *27:8 3.91927e-05
5 *27:8 *31:25 1.32074e-05
6 *27:14 *71:A1 0
7 *27:14 *32:24 0
8 *72:A *27:8 1.52651e-06
9 *3:8 *27:14 2.20493e-06
10 *3:14 *27:14 1.62763e-05
11 *5:8 *27:14 3.38548e-06
12 *9:10 *27:14 2.62137e-05
13 *9:16 *27:14 9.84606e-06
14 *9:46 *27:14 1.67336e-06
15 *11:21 *27:14 0
16 *25:10 *27:14 1.10099e-06
*RES
1 *72:Y *27:8 39.2134 
2 *27:8 *27:14 41.2744 
3 *27:14 *73:B 17.2 
*END

*D_NET *28 0.000255351
*CONN
*I *148:A I *D BUFx2_ASAP7_75t_R
*I *149:A I *D BUFx2_ASAP7_75t_R
*I *75:Y O *D BUFx2_ASAP7_75t_R
*CAP
1 *148:A 0
2 *149:A 3.25524e-06
3 *75:Y 0
4 *28:23 3.45601e-05
5 *28:10 5.92642e-05
6 *28:8 6.25797e-05
7 *28:4 4.11308e-05
8 *28:8 *42:16 5.19552e-07
9 *28:10 *39:10 1.66587e-05
10 *28:10 *42:8 0
11 *28:23 *76:CLK 5.05252e-06
12 *28:23 *41:10 2.05106e-05
13 *16:20 *28:23 0
14 *18:10 *28:10 1.182e-05
*RES
1 *75:Y *28:4 17.2 
2 *28:4 *28:8 19.8741 
3 *28:8 *28:10 43.9269 
4 *28:10 *149:A 36.0045 
5 *28:4 *28:23 47.0478 
6 *28:23 *148:A 34.4 
*END

*D_NET *31 0.000572064
*CONN
*I *62:A I *D INVx2_ASAP7_75t_R
*I *64:B I *D AND3x1_ASAP7_75t_R
*I *66:A I *D NAND2x1_ASAP7_75t_R
*I *67:A2 I *D OA21x2_ASAP7_75t_R
*I *72:C I *D AND4x1_ASAP7_75t_R
*I *138:Y O *D BUFx2_ASAP7_75t_R
*CAP
1 *62:A 1.66238e-05
2 *64:B 1.21615e-06
3 *66:A 7.60538e-06
4 *67:A2 0
5 *72:C 1.38454e-06
6 *138:Y 3.9995e-05
7 *31:76 4.59811e-05
8 *31:70 4.13253e-05
9 *31:57 3.29892e-05
10 *31:42 6.59596e-05
11 *31:38 4.3082e-05
12 *31:25 2.09469e-05
13 *31:10 3.31047e-05
14 *31:6 5.53012e-05
15 *62:A *46:8 0
16 *66:A *32:20 8.29207e-07
17 *31:10 *50:26 2.18135e-06
18 *31:25 *50:20 2.14755e-06
19 *31:25 *50:26 2.90209e-08
20 *31:38 *71:A1 5.61148e-06
21 *31:38 *32:24 1.30791e-05
22 *31:38 *50:20 5.22376e-07
23 *31:42 *71:B 5.25278e-06
24 *31:42 *45:22 5.51397e-07
25 *31:57 *43:10 5.41925e-06
26 *31:57 *44:20 7.3874e-07
27 *31:70 *64:C 2.95569e-05
28 *31:70 *43:10 1.02359e-06
29 *31:76 *49:8 0
30 *31:76 *51:8 2.83874e-07
31 *72:A *72:C 2.20964e-06
32 *72:A *31:25 1.32074e-05
33 *72:D *72:C 1.95129e-06
34 *162:A *31:6 1.76928e-06
35 *162:A *31:10 0
36 *2:26 *31:42 1.96943e-05
37 *4:37 *31:10 5.97629e-08
38 *5:8 *31:25 6.11785e-06
39 *5:16 *72:C 7.14604e-06
40 *5:16 *31:10 4.38963e-06
41 *5:16 *31:25 4.38963e-06
42 *5:22 *31:6 0
43 *9:16 *31:10 5.60551e-07
44 *9:16 *31:25 3.23873e-06
45 *12:6 *31:42 0
46 *12:37 *31:70 4.74778e-06
47 *12:37 *31:76 0
48 *12:49 *31:76 6.70433e-06
49 *13:40 *31:70 0
50 *14:8 *64:B 1.52651e-06
51 *14:8 *31:57 1.44167e-06
52 *14:14 *66:A 1.12894e-06
53 *14:14 *31:57 9.15354e-08
54 *21:12 *66:A 6.10236e-08
55 *21:12 *31:57 2.05027e-06
56 *21:12 *31:70 3.62937e-06
57 *27:8 *31:25 1.32074e-05
*RES
1 *138:Y *31:6 35.9189 
2 *31:6 *31:10 27.337 
3 *31:10 *72:C 36.5393 
4 *31:10 *31:25 29.6994 
5 *31:25 *67:A2 17.2 
6 *31:25 *31:38 39.975 
7 *31:38 *31:42 34.8492 
8 *31:42 *66:A 38.9053 
9 *31:42 *31:57 30.0678 
10 *31:57 *64:B 18.2696 
11 *31:57 *31:70 46.7897 
12 *31:70 *31:76 33.1634 
13 *31:76 *62:A 41.3527 
*END

*D_NET *32 0.000681134
*CONN
*I *56:A I *D INVx3_ASAP7_75t_R
*I *139:Y O *D BUFx2_ASAP7_75t_R
*CAP
1 *56:A 4.12402e-06
2 *139:Y 2.33964e-06
3 *32:32 2.43743e-05
4 *32:24 5.09276e-05
5 *32:20 5.19373e-05
6 *32:12 0.000176949
7 *32:10 0.000155689
8 *32:8 2.33964e-06
9 *32:12 *53:12 6.31782e-05
10 *32:20 *53:12 5.88345e-05
11 *32:24 *71:A1 1.13491e-06
12 *32:24 *45:22 5.64505e-06